data_image0
_chemical_formula_structural       Li20Ge2P4S24
_chemical_formula_sum              "Li20 Ge2 P4 S24"
_cell_length_a       8.511367157430762
_cell_length_b       8.718309438571293
_cell_length_c       14.282366093870424
_cell_angle_alpha    80.76105474787764
_cell_angle_beta     75.00958496672612
_cell_angle_gamma    74.43359677633119

_space_group_name_H-M_alt    "P 1"
_space_group_IT_number       1

loop_
  _space_group_symop_operation_xyz
  'x, y, z'

loop_
  _atom_site_type_symbol
  _atom_site_label
  _atom_site_symmetry_multiplicity
  _atom_site_fract_x
  _atom_site_fract_y
  _atom_site_fract_z
  _atom_site_occupancy
  Li  Li1       1.0  0.35245504188167565  0.7884668675043341  0.07171083089740454  1.0000
  Li  Li2       1.0  0.9511006781717676  0.17221016772239803  0.13966085616547372  1.0000
  Li  Li3       1.0  0.8562700234226015  0.3181737541611069  0.3759558009511206  1.0000
  Li  Li4       1.0  0.10566766242278802  0.5367846935997204  0.4372054169238206  1.0000
  Li  Li5       1.0  0.6428207844816812  0.4337411490881022  0.1989950586230958  1.0000
  Li  Li6       1.0  0.45964653630851976  0.14128035254405033  0.3874252056552233  1.0000
  Li  Li7       1.0  0.24487515654754036  0.27564733603321073  0.5802193612420007  1.0000
  Li  Li8       1.0  0.3244540924543298  0.1754352713360975  0.9407161016751728  1.0000
  Li  Li9       1.0  0.678479203532297  0.7705575592678897  0.922435322358276  1.0000
  Li  Li10      1.0  0.975454784961977  0.5490567655504963  0.044086744489099224  1.0000
  Li  Li11      1.0  0.13708036900576537  0.7908527788668018  0.6934333227015644  1.0000
  Li  Li12      1.0  0.8159760163295643  0.6734516115103857  0.7146047498108521  1.0000
  Li  Li13      1.0  0.4804261995100915  0.04972878104015822  0.7603744645425474  1.0000
  Li  Li14      1.0  0.1864543176968227  0.34135964167845007  0.24610880275733768  1.0000
  Li  Li15      1.0  0.816366303537997  0.6973879813093744  0.23504087797395368  1.0000
  Li  Li16      1.0  0.8584905471725758  0.2672656789553083  0.5716104247749444  1.0000
  Li  Li17      1.0  0.09372859243328861  0.9664932969898402  0.49276428119730553  1.0000
  Li  Li18      1.0  0.13803206972587392  0.00779857815491854  0.8749096789923748  1.0000
  Li  Li19      1.0  0.725383816989424  0.27836999791262396  0.7887793374215708  1.0000
  Li  Li20      1.0  0.34269503841306165  0.641831868860405  0.8862930050738501  1.0000
  Ge  Ge1       1.0  0.588941439069718  0.02327269606907474  0.11940838115604974  1.0000
  Ge  Ge2       1.0  0.10570550980123537  0.41535430863812106  0.8195527506161209  1.0000
  P   P1        1.0  0.5950348945902265  0.4025308065925686  0.011528669512758683  1.0000
  P   P2        1.0  0.701607668353937  0.9766836567286273  0.5659048135236343  1.0000
  P   P3        1.0  0.45785810237885394  0.6112545762118321  0.4360225784529858  1.0000
  P   P4        1.0  0.23584034417089897  0.9275926844480976  0.3004587281472121  1.0000
  S   S1        1.0  0.19144124785770167  0.7348352991661093  0.24847459239301548  1.0000
  S   S2        1.0  0.343870101876229  0.49029091306412653  0.07066626459088632  1.0000
  S   S3        1.0  0.2764382958420296  0.004664088021355802  0.6745537496781289  1.0000
  S   S4        1.0  0.8750826593028189  0.8450689556881107  0.4685156143192549  1.0000
  S   S5        1.0  0.017253699054206234  0.26000673195134816  0.952427482392118  1.0000
  S   S6        1.0  0.8105551379027032  0.9945108109042967  0.6817104102993818  1.0000
  S   S7        1.0  0.10828414700368981  0.2498848506085971  0.44465322740933266  1.0000
  S   S8        1.0  0.6777306605449641  0.5515796814647516  0.4752986928690165  1.0000
  S   S9        1.0  0.9207028851400325  0.4197494057364935  0.20878514355475736  1.0000
  S   S10       1.0  0.39846246020537684  0.8997131211169653  0.9080808124031162  1.0000
  S   S11       1.0  0.6700309738217215  0.7668134729830082  0.09608473072328612  1.0000
  S   S12       1.0  0.9867990903364158  0.40093520982115016  0.697028745167011  1.0000
  S   S13       1.0  0.5135739392456155  0.8474900089162147  0.6306072163473857  1.0000
  S   S14       1.0  0.4244546452841448  0.4637576486673682  0.34870868110202585  1.0000
  S   S15       1.0  0.030475828104151635  0.6740548290162562  0.8582483714321322  1.0000
  S   S16       1.0  0.6139773029861856  0.16609037083135575  0.9706076621239992  1.0000
  S   S17       1.0  0.4731306966190338  0.8347797039098576  0.3471799205449975  1.0000
  S   S18       1.0  0.034374118913579776  0.8482002671639289  0.15343032433137077  1.0000
  S   S19       1.0  0.6039451278813317  0.19982759292049218  0.5101913952390675  1.0000
  S   S20       1.0  0.38287790387148735  0.34610633973777527  0.7810619671214  1.0000
  S   S21       1.0  0.6631997162239285  0.1324342651111424  0.2226520929760842  1.0000
  S   S22       1.0  0.29862414651303143  0.0741802977996698  0.16877049028100738  1.0000
  S   S23       1.0  0.6439145494290526  0.5167598155053649  0.8722793095429513  1.0000
  S   S24       1.0  0.24009889758716116  0.6503006910811472  0.5407920674151652  1.0000
