data_image0
_chemical_formula_structural       Li20Ge2P4S24Li20Ge2P4S24Li20Ge2P4S24Li20Ge2P4S24Li20Ge2P4S24Li20Ge2P4S24Li20Ge2P4S24Li20Ge2P4S24
_chemical_formula_sum              "Li160 Ge16 P32 S192"
_cell_length_a       15.986461386572035
_cell_length_b       16.216217951398985
_cell_length_c       25.64135303533518
_cell_angle_alpha    78.67736728445568
_cell_angle_beta     74.43693297302522
_cell_angle_gamma    71.90076422125595

_space_group_name_H-M_alt    "P 1"
_space_group_IT_number       1

loop_
  _space_group_symop_operation_xyz
  'x, y, z'

loop_
  _atom_site_type_symbol
  _atom_site_label
  _atom_site_symmetry_multiplicity
  _atom_site_fract_x
  _atom_site_fract_y
  _atom_site_fract_z
  _atom_site_occupancy
  Li  Li1       1.0  0.19465452155494567  0.3745229752999075  0.033286664519931126  1.0000
  Li  Li2       1.0  0.45623369202600467  0.09403850976251245  0.07941177266791966  1.0000
  Li  Li3       1.0  0.4064432109933649  0.14846552495686594  0.1947932023211474  1.0000
  Li  Li4       1.0  0.04370609969622466  0.26633105071270835  0.21645809025455948  1.0000
  Li  Li5       1.0  0.306798694099049  0.23920188997154607  0.09569018481611814  1.0000
  Li  Li6       1.0  0.19956652091066546  0.07808173475960851  0.1989822875123468  1.0000
  Li  Li7       1.0  0.1308015531378953  0.15578055664828983  0.28567160982449735  1.0000
  Li  Li8       1.0  0.19009107385341595  0.09979826825102238  0.4707386985098937  1.0000
  Li  Li9       1.0  0.3674609625938038  0.4254841602893089  0.4379833829438215  1.0000
  Li  Li10      1.0  0.5120304526584786  0.2794164004881022  0.031243643520794902  1.0000
  Li  Li11      1.0  0.03770911093379775  0.41636036934398546  0.3545910907364283  1.0000
  Li  Li12      1.0  0.4087876280079608  0.32986747587722776  0.31947529340077374  1.0000
  Li  Li13      1.0  0.24793161567586772  0.03542595319458656  0.36516964019549125  1.0000
  Li  Li14      1.0  0.09862534761792302  0.16865563626769914  0.1273698310775599  1.0000
  Li  Li15      1.0  0.3972429101654899  0.3630751054883888  0.13015144874099152  1.0000
  Li  Li16      1.0  0.42816148127713116  0.09933467662747117  0.2977589585087314  1.0000
  Li  Li17      1.0  0.030442335707395966  0.46640252783930536  0.24787063802057305  1.0000
  Li  Li18      1.0  0.05541115031751483  0.013830337519438875  0.4477953630497936  1.0000
  Li  Li19      1.0  0.3434754847465431  0.16846331536090242  0.389762601679162  1.0000
  Li  Li20      1.0  0.1901155051240788  0.32145658701278845  0.4257705314041733  1.0000
  Ge  Ge1       1.0  0.30063330073386313  0.009466592412944178  0.055451255095187515  1.0000
  Ge  Ge2       1.0  0.05114135030144435  0.2280771452787872  0.41407827521642304  1.0000
  P   P1        1.0  0.3373472566165595  0.20000458486374953  0.9961341593211263  1.0000
  P   P2        1.0  0.31145901517305313  0.4511769316194641  0.2523075468921491  1.0000
  P   P3        1.0  0.22342656080614204  0.3072120351267215  0.24775938529327113  1.0000
  P   P4        1.0  0.06539041547440247  0.46374874899399376  0.12224601606725714  1.0000
  S   S1        1.0  0.13666425793026055  0.33172480123003106  0.1341599642583493  1.0000
  S   S2        1.0  0.19818143228293145  0.2276433984751794  0.020284217162574773  1.0000
  S   S3        1.0  0.1176592364807469  0.017549173648681724  0.3394990398024214  1.0000
  S   S4        1.0  0.43789507201659794  0.40601971740977977  0.20802337437737978  1.0000
  S   S5        1.0  0.025022685399149095  0.14594247938426205  0.4908992441303095  1.0000
  S   S6        1.0  0.40176033835894  0.4696836538444637  0.33649049384140495  1.0000
  S   S7        1.0  0.046364525705179654  0.11800620244054418  0.22403398167969693  1.0000
  S   S8        1.0  0.33922450700887086  0.24534087265567586  0.2762705147494763  1.0000
  S   S9        1.0  0.4545442042306937  0.2178011017664035  0.11536321661040656  1.0000
  S   S10       1.0  0.2076693984467367  0.4573775889426957  0.4508949191535184  1.0000
  S   S11       1.0  0.34369567146345864  0.37240825293542795  0.04626898415119746  1.0000
  S   S12       1.0  0.49456342768921446  0.17672824918205302  0.35657121504595646  1.0000
  S   S13       1.0  0.2211321715423731  0.4017647576454007  0.32709927357996277  1.0000
  S   S14       1.0  0.2314196893469479  0.22692019247250075  0.19263797722466663  1.0000
  S   S15       1.0  0.02627968962129331  0.35791993393910043  0.44333521533964876  1.0000
  S   S16       1.0  0.36712659896466526  0.07039663119909528  0.4701095767198571  1.0000
  S   S17       1.0  0.23917390966377128  0.4237265606019388  0.1951726748207186  1.0000
  S   S18       1.0  0.5145337301366044  0.44015247064199603  0.0626242287585422  1.0000
  S   S19       1.0  0.2923310183274415  0.07935318146032161  0.25637579909365593  1.0000
  S   S20       1.0  0.1986343405510812  0.18772236477506551  0.3801041036103503  1.0000
  S   S21       1.0  0.31328728724196714  0.07604446075344758  0.11825897519336685  1.0000
  S   S22       1.0  0.1480179734131697  0.04638651348525911  0.07579469071520212  1.0000
  S   S23       1.0  0.35147456982597  0.2853849694580805  0.4258036940714627  1.0000
  S   S24       1.0  0.09332871761658208  0.31663200687195925  0.2889803141659712  1.0000
  Li  Li21      1.0  0.19465452524045787  0.37452294882527665  0.5332866644437627  1.0000
  Li  Li22      1.0  0.4562336778056292  0.09403851067652609  0.5794117741192898  1.0000
  Li  Li23      1.0  0.4064432057744837  0.14846553825809142  0.6947932065390887  1.0000
  Li  Li24      1.0  0.04370612447756857  0.26633106297957126  0.716458084521481  1.0000
  Li  Li25      1.0  0.3067986860049389  0.23920189911025913  0.595690192280946  1.0000
  Li  Li26      1.0  0.1995665146647194  0.07808170128242266  0.6989822945881297  1.0000
  Li  Li27      1.0  0.13080155677024732  0.1557805639188353  0.7856716047907589  1.0000
  Li  Li28      1.0  0.19009107984671617  0.0997982652140961  0.9707386919173955  1.0000
  Li  Li29      1.0  0.36746096126278893  0.42548415311810006  0.9379833827882627  1.0000
  Li  Li30      1.0  0.5120304595092161  0.2794164033006785  0.5312436407705392  1.0000
  Li  Li31      1.0  0.03770911792062942  0.4163603674852149  0.8545910935070872  1.0000
  Li  Li32      1.0  0.40878762959331283  0.3298674713890064  0.8194752979932783  1.0000
  Li  Li33      1.0  0.24793161228703645  0.0354259548901258  0.8651696372837274  1.0000
  Li  Li34      1.0  0.09862533097917431  0.16865568445541837  0.6273698440294955  1.0000
  Li  Li35      1.0  0.39724291558358643  0.36307509830280577  0.6301514438458932  1.0000
  Li  Li36      1.0  0.4281614827764967  0.09933467442855241  0.7977589555763721  1.0000
  Li  Li37      1.0  0.030442339275749148  0.46640253557535977  0.7478706462602792  1.0000
  Li  Li38      1.0  0.055411150299677234  0.013830348442692795  0.9477953457707683  1.0000
  Li  Li39      1.0  0.3434754852626026  0.16846331421804198  0.8897625919019471  1.0000
  Li  Li40      1.0  0.19011550128249902  0.3214565845155778  0.9257705394126351  1.0000
  Ge  Ge3       1.0  0.30063328966311703  0.009466597107436036  0.5554512501813142  1.0000
  Ge  Ge4       1.0  0.051141344948913356  0.2280771452867906  0.9140782795306095  1.0000
  P   P5        1.0  0.33734724604217603  0.20000458247477096  0.49613416498219753  1.0000
  P   P6        1.0  0.3114590310423932  0.4511769061757246  0.7523075494158737  1.0000
  P   P7        1.0  0.2234265568927899  0.3072120252378121  0.7477593877698385  1.0000
  P   P8        1.0  0.06539039949868684  0.4637487313608105  0.6222459892873795  1.0000
  S   S25       1.0  0.13666425581388258  0.3317248333550947  0.6341599670882041  1.0000
  S   S26       1.0  0.1981814327385109  0.22764339496983257  0.5202842129845955  1.0000
  S   S27       1.0  0.1176592395495183  0.017549170864415622  0.83949903036773  1.0000
  S   S28       1.0  0.43789508924456083  0.40601970949929317  0.7080233692860497  1.0000
  S   S29       1.0  0.02502268671624538  0.14594247524525153  0.9908992427120501  1.0000
  S   S30       1.0  0.4017603408129238  0.4696836576411575  0.8364904941363414  1.0000
  S   S31       1.0  0.046364515405247796  0.1180062101738137  0.724033984623413  1.0000
  S   S32       1.0  0.33922450617308936  0.24534087373157157  0.7762705249821678  1.0000
  S   S33       1.0  0.4545441992475245  0.2178011088083752  0.6153632159756588  1.0000
  S   S34       1.0  0.20766939897471276  0.45737758453477645  0.9508949191333721  1.0000
  S   S35       1.0  0.34369566704882365  0.37240825371724545  0.5462689840743604  1.0000
  S   S36       1.0  0.494563435430986  0.17672823261747564  0.8565712184532331  1.0000
  S   S37       1.0  0.221132168877976  0.40176474762985104  0.8270992749753088  1.0000
  S   S38       1.0  0.23141969787412064  0.22692016348413824  0.6926379987557757  1.0000
  S   S39       1.0  0.026279689391445097  0.3579199281543447  0.9433352262237352  1.0000
  S   S40       1.0  0.36712660393017543  0.07039663053906509  0.9701095682215055  1.0000
  S   S41       1.0  0.23917391604217392  0.42372653958738005  0.6951726751005987  1.0000
  S   S42       1.0  0.5145337267812434  0.44015246833159394  0.5626242202216309  1.0000
  S   S43       1.0  0.2923310279971947  0.0793531677493526  0.7563758098202359  1.0000
  S   S44       1.0  0.19863433933955704  0.187722364151938  0.8801041036917339  1.0000
  S   S45       1.0  0.31328727473922763  0.07604446034623365  0.6182589810552473  1.0000
  S   S46       1.0  0.14801795136681936  0.04638654097935053  0.5757947124894558  1.0000
  S   S47       1.0  0.3514745719079756  0.2853849722041821  0.9258036835733774  1.0000
  S   S48       1.0  0.09332871234449362  0.31663201188843254  0.7889803179029169  1.0000
  Li  Li41      1.0  0.19465452588192028  0.8745229815481673  0.033286664720184274  1.0000
  Li  Li42      1.0  0.4562336895018572  0.5940385074550787  0.07941177409241142  1.0000
  Li  Li43      1.0  0.40644321240010506  0.6484655218855352  0.19479320124280078  1.0000
  Li  Li44      1.0  0.04370609250585056  0.7663310523247745  0.21645809328444351  1.0000
  Li  Li45      1.0  0.30679870023591227  0.7392018915946029  0.09569017921327681  1.0000
  Li  Li46      1.0  0.19956652658307114  0.5780817295937546  0.19898229184696323  1.0000
  Li  Li47      1.0  0.13080155417832015  0.6557805542436571  0.28567160748759285  1.0000
  Li  Li48      1.0  0.19009107551303972  0.5997982697628458  0.47073869873684676  1.0000
  Li  Li49      1.0  0.367460962823721  0.9254841601128585  0.43798338072802806  1.0000
  Li  Li50      1.0  0.5120304512706629  0.779416402596876  0.03124364379570375  1.0000
  Li  Li51      1.0  0.037709115154162524  0.916360367247707  0.3545910921913433  1.0000
  Li  Li52      1.0  0.4087876186722905  0.8298674844890322  0.3194752944170877  1.0000
  Li  Li53      1.0  0.24793161215420337  0.535425955540179  0.36516964147776865  1.0000
  Li  Li54      1.0  0.09862534447125433  0.668655643105391  0.1273698347055368  1.0000
  Li  Li55      1.0  0.3972429130405811  0.8630751027697494  0.1301514490389896  1.0000
  Li  Li56      1.0  0.42816148200036325  0.599334673594349  0.2977589611501355  1.0000
  Li  Li57      1.0  0.030442323305999365  0.966402527732006  0.24787064181437654  1.0000
  Li  Li58      1.0  0.055411149605425626  0.5138303347992801  0.44779536142148857  1.0000
  Li  Li59      1.0  0.3434754802646259  0.6684633194307164  0.38976260176476574  1.0000
  Li  Li60      1.0  0.1901155000190937  0.8214565834984321  0.4257705346074424  1.0000
  Ge  Ge5       1.0  0.3006332982523057  0.5094665961384239  0.05545125615079418  1.0000
  Ge  Ge6       1.0  0.05114134889281909  0.7280771488990591  0.41407827570296574  1.0000
  P   P9        1.0  0.3373472613504901  0.7000045821583863  0.9961341570774778  1.0000
  P   P10       1.0  0.3114590128807216  0.9511769298302052  0.25230754004326567  1.0000
  P   P11       1.0  0.22342655097922465  0.807212042639635  0.24775938522148094  1.0000
  P   P12       1.0  0.06539041975295194  0.9637487515586725  0.12224602286386041  1.0000
  S   S49       1.0  0.13666425421303185  0.8317247998770334  0.13415996186126122  1.0000
  S   S50       1.0  0.1981814319943169  0.7276433957499875  0.02028421969784394  1.0000
  S   S51       1.0  0.11765923629311306  0.5175491702440432  0.3394990387716415  1.0000
  S   S52       1.0  0.4378950728147365  0.9060197170267318  0.20802337315416947  1.0000
  S   S53       1.0  0.02502268704624092  0.6459424780159484  0.490899242789813  1.0000
  S   S54       1.0  0.4017603406418818  0.9696836543888221  0.33649050227813976  1.0000
  S   S55       1.0  0.04636452164309833  0.6180062049065398  0.22403398092376892  1.0000
  S   S56       1.0  0.33922450568190177  0.745340868688815  0.276270517158257  1.0000
  S   S57       1.0  0.4545442014927841  0.7178010947630348  0.11536321868653039  1.0000
  S   S58       1.0  0.20766939389218114  0.9573775928916933  0.4508949229703073  1.0000
  S   S59       1.0  0.343695672525614  0.8724082487750618  0.04626898479268115  1.0000
  S   S60       1.0  0.49456342596269615  0.6767282513504196  0.356571216500462  1.0000
  S   S61       1.0  0.22113216716295953  0.9017647614711732  0.32709927172290715  1.0000
  S   S62       1.0  0.23141968467972396  0.7269202022107255  0.19263797575782068  1.0000
  S   S63       1.0  0.02627968938488289  0.8579199245415199  0.4433352186789138  1.0000
  S   S64       1.0  0.36712660434138605  0.5703966239561374  0.47010957648713764  1.0000
  S   S65       1.0  0.23917389207555442  0.9237265619754271  0.19517267450786177  1.0000
  S   S66       1.0  0.5145337228455947  0.9401524759422372  0.0626242290672726  1.0000
  S   S67       1.0  0.29233101939714534  0.579353186837964  0.2563758006572911  1.0000
  S   S68       1.0  0.19863433626870322  0.6877223671008021  0.38010410468769523  1.0000
  S   S69       1.0  0.3132872814288658  0.576044458145289  0.11825897008518078  1.0000
  S   S70       1.0  0.14801797088314544  0.5463865140711675  0.07579469436095324  1.0000
  S   S71       1.0  0.35147456582429626  0.7853849737191179  0.425803689347452  1.0000
  S   S72       1.0  0.09332871401867178  0.8166320007372648  0.2889803161646806  1.0000
  Li  Li61      1.0  0.1946545236818643  0.8745229401574355  0.5332866698141855  1.0000
  Li  Li62      1.0  0.4562336754794378  0.5940385159320083  0.579411776009193  1.0000
  Li  Li63      1.0  0.40644320186864863  0.6484655458305905  0.694793209374328  1.0000
  Li  Li64      1.0  0.043706119381774336  0.7663310673936997  0.7164580831407517  1.0000
  Li  Li65      1.0  0.30679868378275826  0.7392018990585112  0.5956901942565459  1.0000
  Li  Li66      1.0  0.1995665194645559  0.5780816980900222  0.6989822955491851  1.0000
  Li  Li67      1.0  0.1308015588207649  0.655780566397507  0.7856716018305175  1.0000
  Li  Li68      1.0  0.19009107707697542  0.5997982698744627  0.9707386922921613  1.0000
  Li  Li69      1.0  0.3674609608132417  0.9254841537166153  0.937983381253501  1.0000
  Li  Li70      1.0  0.512030454745693  0.7794164044235552  0.5312436434581125  1.0000
  Li  Li71      1.0  0.03770911765320329  0.9163603611068613  0.854591096638205  1.0000
  Li  Li72      1.0  0.4087876295019832  0.8298674733311706  0.8194752993403315  1.0000
  Li  Li73      1.0  0.2479316136410734  0.5354259508446549  0.8651696401396579  1.0000
  Li  Li74      1.0  0.09862534072917319  0.6686556821426495  0.6273698397769631  1.0000
  Li  Li75      1.0  0.3972429207642306  0.8630751042885424  0.6301514427118277  1.0000
  Li  Li76      1.0  0.42816148700051454  0.5993346720791031  0.797758958308262  1.0000
  Li  Li77      1.0  0.030442339831701373  0.9664025321911167  0.7478706424878827  1.0000
  Li  Li78      1.0  0.05541115351154089  0.5138303430139797  0.9477953484849528  1.0000
  Li  Li79      1.0  0.3434754888665579  0.6684633221389641  0.8897625897547297  1.0000
  Li  Li80      1.0  0.1901155021225093  0.8214565769081199  0.9257705346320347  1.0000
  Ge  Ge7       1.0  0.30063329921000426  0.5094665943433059  0.5554512516702796  1.0000
  Ge  Ge8       1.0  0.05114135076249164  0.7280771407892743  0.9140782747720951  1.0000
  P   P13       1.0  0.33734725827494194  0.7000045796851254  0.4961341644349714  1.0000
  P   P14       1.0  0.3114590236365286  0.9511769147917372  0.7523075494996037  1.0000
  P   P15       1.0  0.22342655347813048  0.8072120292467659  0.7477593897861267  1.0000
  P   P16       1.0  0.06539039893236524  0.9637487323846855  0.6222459751416103  1.0000
  S   S73       1.0  0.13666425990186645  0.8317248491704853  0.6341599691224133  1.0000
  S   S74       1.0  0.19818142507851447  0.7276433863371492  0.5202842189846337  1.0000
  S   S75       1.0  0.11765923512558264  0.517549171775964  0.8394990338793945  1.0000
  S   S76       1.0  0.43789509239455965  0.9060197184062196  0.7080233700363469  1.0000
  S   S77       1.0  0.025022685187303086  0.6459424726921691  0.9908992413177263  1.0000
  S   S78       1.0  0.4017603429872618  0.9696836539597632  0.8364904988248199  1.0000
  S   S79       1.0  0.04636452223813228  0.6180062113383271  0.7240339812741114  1.0000
  S   S80       1.0  0.3392245130341164  0.7453408748535667  0.776270527484179  1.0000
  S   S81       1.0  0.45454420377136945  0.7178011137648879  0.6153632135679743  1.0000
  S   S82       1.0  0.20766939538311044  0.9573775868530287  0.950894913207574  1.0000
  S   S83       1.0  0.3436956720482012  0.8724082399604627  0.5462689810955569  1.0000
  S   S84       1.0  0.4945634364793047  0.6767282336091419  0.8565712211399467  1.0000
  S   S85       1.0  0.2211321745690741  0.9017647494232898  0.8270992704178584  1.0000
  S   S86       1.0  0.23141970301857787  0.7269201552439603  0.6926380026642637  1.0000
  S   S87       1.0  0.026279684866112433  0.8579199333687546  0.9433352247594616  1.0000
  S   S88       1.0  0.3671266001954893  0.5703966318740683  0.9701095656609983  1.0000
  S   S89       1.0  0.2391739180909966  0.9237265389508297  0.6951726756550599  1.0000
  S   S90       1.0  0.5145337219964002  0.9401524730099534  0.5626242077127616  1.0000
  S   S91       1.0  0.29233103420422474  0.5793531664531972  0.7563758114491951  1.0000
  S   S92       1.0  0.19863433332011082  0.687722364828599  0.8801041075180569  1.0000
  S   S93       1.0  0.31328727218080216  0.5760444624854714  0.6182589846833355  1.0000
  S   S94       1.0  0.14801795836337675  0.5463865442297423  0.5757947048341122  1.0000
  S   S95       1.0  0.35147457395805726  0.7853849773448033  0.9258036809390002  1.0000
  S   S96       1.0  0.09332871270086776  0.8166320163951599  0.788980315667614  1.0000
  Li  Li81      1.0  0.6946545215966695  0.37452298502612336  0.033286661750662846  1.0000
  Li  Li82      1.0  0.9562336916829041  0.09403851221323142  0.0794117729311286  1.0000
  Li  Li83      1.0  0.9064432167293436  0.14846552298986673  0.1947932020097766  1.0000
  Li  Li84      1.0  0.5437060959713366  0.2663310502269586  0.21645809058386137  1.0000
  Li  Li85      1.0  0.8067986986279327  0.23920189121542532  0.09569018262813099  1.0000
  Li  Li86      1.0  0.699566525313174  0.07808172719328478  0.19898228958158196  1.0000
  Li  Li87      1.0  0.6308015468176921  0.15578055816152592  0.28567160870566327  1.0000
  Li  Li88      1.0  0.6900910752803613  0.09979827227319797  0.47073869046287475  1.0000
  Li  Li89      1.0  0.8674609585088634  0.4254841576067118  0.4379833805036539  1.0000
  Li  Li90      1.0  0.012030452408719361  0.2794163996887984  0.03124364739451655  1.0000
  Li  Li91      1.0  0.5377091090079947  0.4163603646940454  0.35459109101960457  1.0000
  Li  Li92      1.0  0.9087876269405712  0.3298674757524041  0.31947529389573537  1.0000
  Li  Li93      1.0  0.7479316130526704  0.03542596162579302  0.3651696397467579  1.0000
  Li  Li94      1.0  0.5986253464906501  0.16865563895362304  0.12736983219951648  1.0000
  Li  Li95      1.0  0.8972429100426375  0.3630751057842182  0.13015144938633605  1.0000
  Li  Li96      1.0  0.928161480957636  0.09933468120653227  0.29775895569355554  1.0000
  Li  Li97      1.0  0.5304423312902892  0.46640252711009483  0.2478706427045689  1.0000
  Li  Li98      1.0  0.555411151210126  0.013830337769315151  0.4477953561112686  1.0000
  Li  Li99      1.0  0.8434754814142486  0.16846331964900493  0.38976259678027986  1.0000
  Li  Li100     1.0  0.6901155004078928  0.3214565865383287  0.42577053337675097  1.0000
  Ge  Ge9       1.0  0.8006332962786845  0.009466593792335904  0.05545125437477097  1.0000
  Ge  Ge10      1.0  0.5511413470735612  0.22807714785712957  0.4140782775642926  1.0000
  P   P17       1.0  0.8373472607958757  0.20000458904151105  0.9961341559823619  1.0000
  P   P18       1.0  0.8114590274400275  0.45117692507362517  0.25230754645003395  1.0000
  P   P19       1.0  0.7234265543058278  0.30721204202338376  0.2477593850197225  1.0000
  P   P20       1.0  0.5653904107965858  0.46374874761482016  0.12224602535092693  1.0000
  S   S97       1.0  0.6366642497534535  0.33172480240044483  0.13415996341212252  1.0000
  S   S98       1.0  0.6981814353643524  0.22764339646558063  0.020284218029242043  1.0000
  S   S99       1.0  0.6176592299569672  0.017549175075502268  0.3394990396405131  1.0000
  S   S100      1.0  0.9378950817562012  0.4060197234553352  0.20802336992545808  1.0000
  S   S101      1.0  0.5250226879767251  0.1459424733040647  0.49089924230902143  1.0000
  S   S102      1.0  0.9017603376676944  0.469683648042672  0.33649049401483866  1.0000
  S   S103      1.0  0.5463645166932553  0.11800620438036419  0.22403397873629985  1.0000
  S   S104      1.0  0.839224511997307  0.24534086918946874  0.27627051085773746  1.0000
  S   S105      1.0  0.9545442018032582  0.2178011036648465  0.1153632172370466  1.0000
  S   S106      1.0  0.7076693963308366  0.4573775869603126  0.4508949174429506  1.0000
  S   S107      1.0  0.8436956708969771  0.37240824478713164  0.04626898394558994  1.0000
  S   S108      1.0  0.99456343088607  0.17672824994599198  0.3565712121129379  1.0000
  S   S109      1.0  0.7211321696176964  0.4017647519213994  0.3270992692922877  1.0000
  S   S110      1.0  0.7314196879303457  0.2269201983076852  0.19263797710539296  1.0000
  S   S111      1.0  0.5262796895385657  0.35791992755230717  0.44333522263445263  1.0000
  S   S112      1.0  0.8671265993041801  0.07039662947142146  0.47010956928042635  1.0000
  S   S113      1.0  0.7391739184261169  0.4237265582830357  0.19517267412157288  1.0000
  S   S114      1.0  0.0145337256569118  0.44015247023128  0.06262422179080533  1.0000
  S   S115      1.0  0.7923310166425583  0.07935319375482287  0.25637580097347623  1.0000
  S   S116      1.0  0.6986343351981608  0.18772237038956108  0.3801041062161302  1.0000
  S   S117      1.0  0.8132872875051653  0.07604445744025153  0.11825897773754296  1.0000
  S   S118      1.0  0.6480179780073022  0.0463865153208278  0.07579469372073493  1.0000
  S   S119      1.0  0.8514745694834146  0.28538497193784795  0.42580368689597964  1.0000
  S   S120      1.0  0.5933287145100811  0.3166320026431931  0.2889803137680754  1.0000
  Li  Li101     1.0  0.6946545250573286  0.374522970891223  0.5332866638576107  1.0000
  Li  Li102     1.0  0.9562336687027195  0.09403851862104018  0.5794117683600808  1.0000
  Li  Li103     1.0  0.9064432245641653  0.14846552250245493  0.6947931975409576  1.0000
  Li  Li104     1.0  0.5437060955140716  0.26633105590792133  0.7164580920662718  1.0000
  Li  Li105     1.0  0.8067986905567842  0.23920188873132628  0.5956901902894501  1.0000
  Li  Li106     1.0  0.6995665190540867  0.07808170932868438  0.6989822955365366  1.0000
  Li  Li107     1.0  0.6308015550684999  0.1557805612831343  0.7856716079717557  1.0000
  Li  Li108     1.0  0.6900910795764419  0.09979826862284606  0.9707386909127707  1.0000
  Li  Li109     1.0  0.8674609619275472  0.4254841528959153  0.9379833823514186  1.0000
  Li  Li110     1.0  0.012030445568557147  0.27941641528869043  0.5312436393710193  1.0000
  Li  Li111     1.0  0.5377091157216934  0.41636036423312667  0.8545910955879452  1.0000
  Li  Li112     1.0  0.9087876250101968  0.329867474826806  0.8194752955462604  1.0000
  Li  Li113     1.0  0.7479316124824718  0.035425953181035814  0.8651696386919829  1.0000
  Li  Li114     1.0  0.5986253372975894  0.16865565819209996  0.6273698373427476  1.0000
  Li  Li115     1.0  0.8972429176476833  0.36307510842868895  0.6301514393633177  1.0000
  Li  Li116     1.0  0.9281614801247428  0.0993346758276573  0.7977589599589766  1.0000
  Li  Li117     1.0  0.5304423215466973  0.46640252991845554  0.7478706424055231  1.0000
  Li  Li118     1.0  0.5554111559011122  0.013830348650948437  0.9477953413941197  1.0000
  Li  Li119     1.0  0.8434754866854789  0.16846332449179147  0.8897625950626227  1.0000
  Li  Li120     1.0  0.6901155043129781  0.3214565809862153  0.9257705333736264  1.0000
  Ge  Ge11      1.0  0.800633292035469  0.00946659294381273  0.5554512505791495  1.0000
  Ge  Ge12      1.0  0.5511413536833899  0.22807714767739962  0.9140782763162079  1.0000
  P   P21       1.0  0.8373472532767141  0.20000458187684542  0.496134161030094  1.0000
  P   P22       1.0  0.811459039969909  0.4511769253287608  0.7523075427479199  1.0000
  P   P23       1.0  0.7234265555645737  0.30721203983152745  0.7477593856041506  1.0000
  P   P24       1.0  0.5653904199989401  0.46374874468629396  0.6222460146719789  1.0000
  S   S121      1.0  0.6366642550858375  0.33172479816938805  0.6341599656950493  1.0000
  S   S122      1.0  0.6981814311649716  0.22764339874251305  0.5202842195685511  1.0000
  S   S123      1.0  0.6176592439641081  0.017549165220676975  0.8394990269319698  1.0000
  S   S124      1.0  0.9378950946698008  0.4060197261182108  0.708023365491172  1.0000
  S   S125      1.0  0.5250226889042567  0.14594246959522303  0.9908992428782706  1.0000
  S   S126      1.0  0.9017603372998156  0.46968365586044797  0.836490492018107  1.0000
  S   S127      1.0  0.5463645228982564  0.11800620260684146  0.7240339802796429  1.0000
  S   S128      1.0  0.8392245157008494  0.24534087287279824  0.776270511292965  1.0000
  S   S129      1.0  0.9545441911507647  0.21780111327943624  0.6153632145550484  1.0000
  S   S130      1.0  0.7076693948182647  0.45737758786617283  0.95089491200281  1.0000
  S   S131      1.0  0.843695660405156  0.3724082575473661  0.5462689806257012  1.0000
  S   S132      1.0  0.9945634313542837  0.17672824166856077  0.856571216462116  1.0000
  S   S133      1.0  0.7211321802203179  0.40176474329105477  0.8270992664374527  1.0000
  S   S134      1.0  0.731419686027362  0.22692018360439664  0.6926379876532051  1.0000
  S   S135      1.0  0.5262796884505999  0.35791993154013163  0.9433352234657156  1.0000
  S   S136      1.0  0.8671266041029793  0.07039662603927767  0.9701095713628347  1.0000
  S   S137      1.0  0.7391739192660903  0.4237265477030408  0.6951726703313162  1.0000
  S   S138      1.0  0.014533710566437152  0.4401524887759184  0.5626241920155408  1.0000
  S   S139      1.0  0.7923310220563939  0.07935319439354598  0.756375802574476  1.0000
  S   S140      1.0  0.6986343407037561  0.1877223675713839  0.8801041077023674  1.0000
  S   S141      1.0  0.8132872742639413  0.07604446105387738  0.6182589759325786  1.0000
  S   S142      1.0  0.6480179519482748  0.0463865286719083  0.5757946967990999  1.0000
  S   S143      1.0  0.8514745711274844  0.285384974510894  0.9258036877141772  1.0000
  S   S144      1.0  0.5933287186069606  0.31663200600401925  0.7889803144467442  1.0000
  Li  Li121     1.0  0.6946545208707013  0.8745229843059219  0.03328666405997293  1.0000
  Li  Li122     1.0  0.9562336926960598  0.5940385111694007  0.07941177539127021  1.0000
  Li  Li123     1.0  0.9064432192991582  0.6484655250500785  0.19479319957530197  1.0000
  Li  Li124     1.0  0.5437060995069645  0.7663310524823103  0.2164580895014377  1.0000
  Li  Li125     1.0  0.8067986932730654  0.7392018958341326  0.09569018139840631  1.0000
  Li  Li126     1.0  0.6995665234748766  0.5780817264542196  0.1989822903225277  1.0000
  Li  Li127     1.0  0.6308015507465361  0.655780552218737  0.285671608979659  1.0000
  Li  Li128     1.0  0.6900910757715261  0.599798271863532  0.4707386931674877  1.0000
  Li  Li129     1.0  0.8674609600855696  0.92548415504888  0.4379833798551078  1.0000
  Li  Li130     1.0  0.01203045213101639  0.7794163953852239  0.031243645093518985  1.0000
  Li  Li131     1.0  0.5377091171409196  0.916360364598746  0.3545910941621364  1.0000
  Li  Li132     1.0  0.9087876214958658  0.8298674787995579  0.31947529358040516  1.0000
  Li  Li133     1.0  0.7479316089202851  0.5354259671551078  0.36516963793573776  1.0000
  Li  Li134     1.0  0.5986253490111815  0.6686556433906028  0.12736983186528775  1.0000
  Li  Li135     1.0  0.8972429116672508  0.8630751018867582  0.13015144834126186  1.0000
  Li  Li136     1.0  0.9281614815415133  0.5993346700441314  0.2977589564818896  1.0000
  Li  Li137     1.0  0.5304423198751372  0.9664025289325803  0.2478706442171425  1.0000
  Li  Li138     1.0  0.5554111513060882  0.5138303398401799  0.4477953524478072  1.0000
  Li  Li139     1.0  0.8434754768451987  0.6684633219169571  0.3897625959812536  1.0000
  Li  Li140     1.0  0.6901154991778015  0.8214565895826224  0.4257705339622982  1.0000
  Ge  Ge13      1.0  0.800633306416447  0.5094665924748789  0.05545126156069562  1.0000
  Ge  Ge14      1.0  0.5511413421452036  0.7280771474640969  0.4140782773578117  1.0000
  P   P25       1.0  0.8373472598949439  0.700004582258655  0.9961341580503675  1.0000
  P   P26       1.0  0.8114590259252182  0.951176922058996  0.25230754642530456  1.0000
  P   P27       1.0  0.7234265546367463  0.8072120343906072  0.24775938315070126  1.0000
  P   P28       1.0  0.5653904092807379  0.9637487561362577  0.12224602595980805  1.0000
  S   S145      1.0  0.6366642586674889  0.8317247976348293  0.13415996602665942  1.0000
  S   S146      1.0  0.6981814353689993  0.7276433966959326  0.02028421797781595  1.0000
  S   S147      1.0  0.6176592350174541  0.517549172149606  0.33949903516808  1.0000
  S   S148      1.0  0.9378950770197066  0.9060197250099636  0.20802337129945184  1.0000
  S   S149      1.0  0.5250226825662542  0.6459424770038954  0.49089924055111356  1.0000
  S   S150      1.0  0.9017603390259131  0.9696836563652373  0.3364904964973348  1.0000
  S   S151      1.0  0.546364520297158  0.6180062020743506  0.22403397952929097  1.0000
  S   S152      1.0  0.8392245102308269  0.745340869440092  0.2762705137188296  1.0000
  S   S153      1.0  0.954544197330189  0.7178011032022136  0.1153632142483708  1.0000
  S   S154      1.0  0.7076693971413531  0.957377588201938  0.45089491496126294  1.0000
  S   S155      1.0  0.8436956705939607  0.872408243214242  0.04626898776411691  1.0000
  S   S156      1.0  0.9945634212411911  0.6767282476633799  0.35657121661548596  1.0000
  S   S157      1.0  0.7211321653052705  0.9017647593894146  0.3270992762359266  1.0000
  S   S158      1.0  0.7314196809224802  0.7269201988887114  0.19263797785459386  1.0000
  S   S159      1.0  0.5262796860823759  0.8579199298340553  0.4433352196454902  1.0000
  S   S160      1.0  0.8671266014459652  0.5703966309615282  0.47010957033465417  1.0000
  S   S161      1.0  0.7391739115023148  0.9237265617626342  0.1951726687690895  1.0000
  S   S162      1.0  0.01453372898269123  0.9401524682857897  0.06262422847768943  1.0000
  S   S163      1.0  0.7923310223709645  0.5793531942386808  0.2563758000126577  1.0000
  S   S164      1.0  0.6986343341020753  0.6877223734644434  0.38010410624010277  1.0000
  S   S165      1.0  0.8132872839420063  0.5760444598443494  0.11825897302527366  1.0000
  S   S166      1.0  0.6480179678363572  0.5463865156381883  0.07579469289109632  1.0000
  S   S167      1.0  0.8514745723749517  0.7853849763362674  0.4258036846764026  1.0000
  S   S168      1.0  0.5933287166538264  0.81663200768504  0.2889803126434728  1.0000
  Li  Li141     1.0  0.6946545275052526  0.8745229632201098  0.5332866609506998  1.0000
  Li  Li142     1.0  0.9562336734680625  0.5940385196816493  0.5794117734040469  1.0000
  Li  Li143     1.0  0.9064432191666375  0.648465530510117  0.6947932024995601  1.0000
  Li  Li144     1.0  0.5437061032162768  0.7663310561120629  0.7164580888076212  1.0000
  Li  Li145     1.0  0.8067986905664762  0.7392018926707972  0.5956901896502773  1.0000
  Li  Li146     1.0  0.6995665164606958  0.5780817129122411  0.6989822995269723  1.0000
  Li  Li147     1.0  0.6308015529497736  0.6557805659541728  0.7856716060105139  1.0000
  Li  Li148     1.0  0.6900910790018309  0.5997982691990424  0.9707386911653779  1.0000
  Li  Li149     1.0  0.8674609600400146  0.9254841550710076  0.9379833821598917  1.0000
  Li  Li150     1.0  0.012030444160448184  0.7794164052551595  0.5312436420564433  1.0000
  Li  Li151     1.0  0.5377091148509979  0.916360356851557  0.8545910932774202  1.0000
  Li  Li152     1.0  0.9087876292571533  0.8298674642656586  0.8194752986185779  1.0000
  Li  Li153     1.0  0.7479316145478543  0.5354259643617459  0.8651696399100833  1.0000
  Li  Li154     1.0  0.5986253432214073  0.6686556584575813  0.6273698349401863  1.0000
  Li  Li155     1.0  0.8972429224870992  0.8630751150992684  0.6301514377767347  1.0000
  Li  Li156     1.0  0.9281614880231946  0.5993346764799946  0.797758955909241  1.0000
  Li  Li157     1.0  0.5304423269946643  0.966402527770243  0.7478706444295545  1.0000
  Li  Li158     1.0  0.5554111497998397  0.5138303459284256  0.9477953468536278  1.0000
  Li  Li159     1.0  0.8434754920594901  0.6684633194590045  0.8897625928838389  1.0000
  Li  Li160     1.0  0.6901155028363107  0.8214565816009243  0.9257705332482312  1.0000
  Ge  Ge15      1.0  0.8006332863300277  0.5094665944567436  0.5554512574593232  1.0000
  Ge  Ge16      1.0  0.5511413504736412  0.7280771494390346  0.9140782829397993  1.0000
  P   P29       1.0  0.8373472576139719  0.7000045815658916  0.49613416408876404  1.0000
  P   P30       1.0  0.8114590399080619  0.9511769113637222  0.7523075493348914  1.0000
  P   P31       1.0  0.7234265473313481  0.8072120419811569  0.7477593890090735  1.0000
  P   P32       1.0  0.5653904207760085  0.9637487366626197  0.6222460018261603  1.0000
  S   S169      1.0  0.6366642573094579  0.8317248107193036  0.6341599666685113  1.0000
  S   S170      1.0  0.6981814217254171  0.7276433948511483  0.520284218943329  1.0000
  S   S171      1.0  0.6176592462406688  0.5175491636421776  0.8394990305463296  1.0000
  S   S172      1.0  0.9378951038805234  0.9060197250703693  0.7080233641454163  1.0000
  S   S173      1.0  0.5250226881340888  0.6459424698753555  0.9908992461760111  1.0000
  S   S174      1.0  0.9017603412750386  0.9696836536843703  0.8364904900813225  1.0000
  S   S175      1.0  0.5463645203860308  0.6180062051361274  0.7240339827052197  1.0000
  S   S176      1.0  0.839224523464296  0.7453408682165482  0.7762705151395449  1.0000
  S   S177      1.0  0.9545441996771786  0.7178011213843175  0.6153632129032363  1.0000
  S   S178      1.0  0.7076693968242382  0.9573775851878086  0.950894914764495  1.0000
  S   S179      1.0  0.8436956577216604  0.8724082522132103  0.546268979680225  1.0000
  S   S180      1.0  0.9945634396877898  0.6767282454082274  0.856571215474101  1.0000
  S   S181      1.0  0.7211321838121204  0.9017647506685472  0.8270992689057053  1.0000
  S   S182      1.0  0.7314196970884573  0.7269201751726828  0.6926379918353428  1.0000
  S   S183      1.0  0.5262796875844677  0.8579199305175946  0.943335223482418  1.0000
  S   S184      1.0  0.867126592448754  0.570396635665204  0.9701095680022226  1.0000
  S   S185      1.0  0.7391739210190292  0.9237265500396616  0.6951726709084974  1.0000
  S   S186      1.0  0.014533710754519813  0.9401524929774554  0.5626241848522624  1.0000
  S   S187      1.0  0.7923310270807771  0.579353183253983  0.7563758049956368  1.0000
  S   S188      1.0  0.6986343441314826  0.687722365442937  0.8801041081291332  1.0000
  S   S189      1.0  0.8132872721458969  0.5760444613474411  0.6182589761586937  1.0000
  S   S190      1.0  0.6480179613227085  0.5463865236399242  0.5757946931314916  1.0000
  S   S191      1.0  0.851474571966645  0.7853849702149689  0.9258036880151801  1.0000
  S   S192      1.0  0.5933287214696414  0.8166320053970691  0.7889803132250116  1.0000
