# generated using pymatgen
data_MgTa2O6
_symmetry_space_group_name_H-M   'P 1'
_cell_length_a   6.21514988
_cell_length_b   6.57877111
_cell_length_c   10.05125713
_cell_angle_alpha   89.88471985
_cell_angle_beta   89.92734528
_cell_angle_gamma   91.14987946
_symmetry_Int_Tables_number   1
_chemical_formula_structural   MgTa2O6
_chemical_formula_sum   'Mg4 Ta8 O24'
_cell_volume   410.89234347
_cell_formula_units_Z   4
loop_
 _symmetry_equiv_pos_site_id
 _symmetry_equiv_pos_as_xyz
  1  'x, y, z'
loop_
 _atom_site_type_symbol
 _atom_site_label
 _atom_site_symmetry_multiplicity
 _atom_site_fract_x
 _atom_site_fract_y
 _atom_site_fract_z
 _atom_site_occupancy
  Mg  Mg0  1  0.68905252  0.28291351  0.20882505  1
  Mg  Mg1  1  0.18964280  0.78223628  0.20876496  1
  Mg  Mg2  1  0.18995960  0.30018818  0.70845705  1
  Mg  Mg3  1  0.68907487  0.79690635  0.70840853  1
  Ta  Ta4  1  0.18936074  0.78868729  0.87328064  1
  Ta  Ta5  1  0.68647510  0.79090798  0.37322447  1
  Ta  Ta6  1  0.68189424  0.78916496  0.04444581  1
  Ta  Ta7  1  0.68684220  0.28984165  0.54382950  1
  Ta  Ta8  1  0.18405913  0.28849250  0.04442938  1
  Ta  Ta9  1  0.18957675  0.78942448  0.54367119  1
  Ta  Ta10  1  0.69440365  0.28928712  0.87302512  1
  Ta  Ta11  1  0.18402112  0.28762242  0.37346417  1
  O  O12  1  0.35452908  0.70887190  0.03749369  1
  O  O13  1  0.60678416  0.95478308  0.53797334  1
  O  O14  1  0.10728633  0.45379555  0.88057899  1
  O  O15  1  0.01402012  0.83267522  0.70868373  1
  O  O16  1  0.73673451  0.60567045  0.20961332  1
  O  O17  1  0.50490123  0.33898020  0.03751456  1
  O  O18  1  0.85501033  0.21186614  0.70942676  1
  O  O19  1  0.85543323  0.21011141  0.38101584  1
  O  O20  1  0.35346150  0.71166384  0.70920688  1
  O  O21  1  0.60694247  0.94908202  0.20928290  1
  O  O22  1  0.35886782  0.71201438  0.38099042  1
  O  O23  1  0.74136657  0.60255653  0.53663880  1
  O  O24  1  0.00296407  0.83980435  0.38033175  1
  O  O25  1  0.10744448  0.45606264  0.53694242  1
  O  O26  1  0.11001652  0.45224598  0.20933215  1
  O  O27  1  0.00486271  0.83972627  0.03810157  1
  O  O28  1  0.23569261  0.10313468  0.20962828  1
  O  O29  1  0.51475275  0.33580202  0.70865774  1
  O  O30  1  0.23966132  0.10152529  0.88010883  1
  O  O31  1  0.49723262  0.33905795  0.37960568  1
  O  O32  1  0.85677308  0.21014468  0.03723453  1
  O  O33  1  0.74502200  0.60059929  0.88017559  1
  O  O34  1  0.23909160  0.10038784  0.53652680  1
  O  O35  1  0.60614848  0.95538759  0.88080239  1
