data_image0
_chemical_formula_structural       Mg4Ta8O24
_chemical_formula_sum              "Mg4 Ta8 O24"
_cell_length_a       6.745632793832872
_cell_length_b       6.746533276809333
_cell_length_c       9.280864611419025
_cell_angle_alpha    89.99893141565192
_cell_angle_beta     89.999537634128
_cell_angle_gamma    90.35981792046077

_space_group_name_H-M_alt    "P 1"
_space_group_IT_number       1

loop_
  _space_group_symop_operation_xyz
  'x, y, z'

loop_
  _atom_site_type_symbol
  _atom_site_label
  _atom_site_symmetry_multiplicity
  _atom_site_fract_x
  _atom_site_fract_y
  _atom_site_fract_z
  _atom_site_occupancy
  Mg  Mg1       1.0  0.6808315156527133  0.2805942273162993  0.20888008488677198  1.0000
  Mg  Mg2       1.0  0.18083377424348668  0.780601242801666  0.20888309323694737  1.0000
  Mg  Mg3       1.0  0.18081682192029822  0.28061637312445603  0.7088814608003015  1.0000
  Mg  Mg4       1.0  0.6808209561838275  0.7805873886988337  0.7088771103682967  1.0000
  Ta  Ta1       1.0  0.18080754769304397  0.7806111335954088  0.8767960160704541  1.0000
  Ta  Ta2       1.0  0.6808397918308808  0.7806610101585403  0.3767941342358874  1.0000
  Ta  Ta3       1.0  0.6808093471905685  0.7805441324809872  0.04095597645142183  1.0000
  Ta  Ta4       1.0  0.6808286036262157  0.2806416185692449  0.5409678028561896  1.0000
  Ta  Ta5       1.0  0.18081093618290126  0.2806021080024015  0.04096240576443109  1.0000
  Ta  Ta6       1.0  0.18084066662314963  0.7806118569559503  0.5409705789667408  1.0000
  Ta  Ta7       1.0  0.680807829956184  0.2805537634555457  0.8767932589033521  1.0000
  Ta  Ta8       1.0  0.1808265348308851  0.2806096430669831  0.37680065590837375  1.0000
  O   O1        1.0  0.3834079564838719  0.7818739551288959  0.03266327611962495  1.0000
  O   O2        1.0  0.6820971120875087  0.9832026600702317  0.5326472128973515  1.0000
  O   O3        1.0  0.18207687995279045  0.4832109914891948  0.8851208174357081  1.0000
  O   O4        1.0  0.9919788985103762  0.7790976027475746  0.7088846451407802  1.0000
  O   O5        1.0  0.6793065980951242  0.5917738145543879  0.20888294213762015  1.0000
  O   O6        1.0  0.47821703620921285  0.27932690206957317  0.03267058070721412  1.0000
  O   O7        1.0  0.8696490163342484  0.28214138506488673  0.7088807596241078  1.0000
  O   O8        1.0  0.8834084482265336  0.2818794435243527  0.3850997873193616  1.0000
  O   O9        1.0  0.3696548353539506  0.7821338930342338  0.7088806488154181  1.0000
  O   O10       1.0  0.6823070064612587  0.9694177530065093  0.20887265112309167  1.0000
  O   O11       1.0  0.38341366888987916  0.7818877793336656  0.3851037716994406  1.0000
  O   O12       1.0  0.6795347397052595  0.5779823234129747  0.5326323645470775  1.0000
  O   O13       1.0  0.9782223823853843  0.7793133965275271  0.3850951337156135  1.0000
  O   O14       1.0  0.18209270508201264  0.48320057468188427  0.5326425630790599  1.0000
  O   O15       1.0  0.18229931324046977  0.4694213872958406  0.20887653105449416  1.0000
  O   O16       1.0  0.9782160056945929  0.7793413184118466  0.03267008490155549  1.0000
  O   O17       1.0  0.17930004293991603  0.09177687711070183  0.20888173933925988  1.0000
  O   O18       1.0  0.4919733444985992  0.27910665559671005  0.7088807383977468  1.0000
  O   O19       1.0  0.17955611170494906  0.07799072472858905  0.8851166999935466  1.0000
  O   O20       1.0  0.4782149684613542  0.2793017872529868  0.3850935949215699  1.0000
  O   O21       1.0  0.8834068435096011  0.28186070036634586  0.032658643375416796  1.0000
  O   O22       1.0  0.679552461759946  0.5779722850895591  0.8851228945551203  1.0000
  O   O23       1.0  0.17952925716881069  0.07798240303476492  0.5326434779025947  1.0000
  O   O24       1.0  0.6820724505281212  0.9831909714981556  0.8851087524514997  1.0000
