data_image0
_chemical_formula_structural       Li20Ge2P4S24
_chemical_formula_sum              "Li20 Ge2 P4 S24"
_cell_length_a       8.953111864927102
_cell_length_b       8.304264995910536
_cell_length_c       15.181081512359732
_cell_angle_alpha    80.53329168875926
_cell_angle_beta     75.78120741240728
_cell_angle_gamma    75.77286345726533

_space_group_name_H-M_alt    "P 1"
_space_group_IT_number       1

loop_
  _space_group_symop_operation_xyz
  'x, y, z'

loop_
  _atom_site_type_symbol
  _atom_site_label
  _atom_site_symmetry_multiplicity
  _atom_site_fract_x
  _atom_site_fract_y
  _atom_site_fract_z
  _atom_site_occupancy
  Li  Li1       1.0  0.3232153551299789  0.7465985750416676  0.05412410306292748  1.0000
  Li  Li2       1.0  0.9312883400150772  0.20321441910860702  0.14492948682457427  1.0000
  Li  Li3       1.0  0.929787343878351  0.3738146244150783  0.35650663739945176  1.0000
  Li  Li4       1.0  0.21488840614592133  0.5692822976203522  0.40098270337077463  1.0000
  Li  Li5       1.0  0.6576880837982442  0.5276744618544462  0.2129977346505476  1.0000
  Li  Li6       1.0  0.4645884097235519  0.23887221599524355  0.3662322342371978  1.0000
  Li  Li7       1.0  0.23660385489131694  0.2742775671785487  0.5530699410756228  1.0000
  Li  Li8       1.0  0.3152310994529812  0.17744622211447392  0.9485492052987722  1.0000
  Li  Li9       1.0  0.6514224077411563  0.8036460983452449  0.8781127680728701  1.0000
  Li  Li10      1.0  0.9636487632254479  0.5365421668545469  0.03220867075705877  1.0000
  Li  Li11      1.0  0.9907807487921508  0.8786979721418141  0.7298976247095096  1.0000
  Li  Li12      1.0  0.6606071273307346  0.7265097431938936  0.6895532088954727  1.0000
  Li  Li13      1.0  0.42630840698671973  0.04908814034138774  0.7628666429140128  1.0000
  Li  Li14      1.0  0.21833042932210472  0.3930134824949809  0.21404362779069094  1.0000
  Li  Li15      1.0  0.8849295332495111  0.7375277684272634  0.20558126780642005  1.0000
  Li  Li16      1.0  0.687703826148296  0.19556436525558332  0.6116501476623444  1.0000
  Li  Li17      1.0  0.24708988367889656  0.005889060235410026  0.39595290230999136  1.0000
  Li  Li18      1.0  0.11172693357797359  0.00689951772249955  0.8841086641980095  1.0000
  Li  Li19      1.0  0.7422163295631192  0.2089502669670724  0.808595771529358  1.0000
  Li  Li20      1.0  0.3423020373313996  0.6231042590324096  0.8688189724662171  1.0000
  Ge  Ge1       1.0  0.5931977497312448  0.026746724871891295  0.13326457436163272  1.0000
  Ge  Ge2       1.0  0.08996095067364433  0.4188567064158496  0.8392584886842561  1.0000
  P   P1        1.0  0.566886258991155  0.4098270149211859  0.9976965788965969  1.0000
  P   P2        1.0  0.551143301912266  0.8965143014479608  0.5538409917272733  1.0000
  P   P3        1.0  0.5433580557929766  0.5564528444925549  0.4886555932639263  1.0000
  P   P4        1.0  0.19905730426336515  0.8544481748225199  0.24209539054697513  1.0000
  S   S1        1.0  0.3498763637857755  0.6273830404285178  0.2320520802072982  1.0000
  S   S2        1.0  0.3223005871281835  0.4640297258604912  0.03237823970204327  1.0000
  S   S3        1.0  0.12485967048690451  0.11610175966529337  0.7095393556819324  1.0000
  S   S4        1.0  0.05844274323637255  0.8634191732448632  0.3680944914979768  1.0000
  S   S5        1.0  0.011989767484152928  0.25749735716690336  0.9660444013655921  1.0000
  S   S6        1.0  0.7244037902797714  0.9789463634631496  0.7327752692632523  1.0000
  S   S7        1.0  0.1788726357883859  0.2955967010784397  0.40404690172369345  1.0000
  S   S8        1.0  0.7061965989061453  0.49167938277521334  0.5699066636611437  1.0000
  S   S9        1.0  0.9548976558108777  0.4475411936142711  0.19687497141308788  1.0000
  S   S10       1.0  0.36556113059804063  0.8938801131499963  0.9087640764659962  1.0000
  S   S11       1.0  0.7037578699801271  0.7737279616499508  0.10263439506377638  1.0000
  S   S12       1.0  0.9780916162719248  0.35043897701908056  0.7301807984453695  1.0000
  S   S13       1.0  0.3858557433848173  0.8292448858522755  0.661512233601589  1.0000
  S   S14       1.0  0.6389991864610597  0.42542843861705704  0.37811794982606933  1.0000
  S   S15       1.0  0.00947176071266139  0.6870603494711011  0.8692089619398642  1.0000
  S   S16       1.0  0.5981838295062767  0.14599797700848494  0.9840811500242497  1.0000
  S   S17       1.0  0.5285937717228778  0.8155291038395783  0.4297059796715134  1.0000
  S   S18       1.0  0.07388968893756842  0.9079979596852953  0.14168200687625732  1.0000
  S   S19       1.0  0.5231616990959497  0.14768994616751474  0.5219442744710129  1.0000
  S   S20       1.0  0.34702526219016155  0.3598422940662294  0.7972615803343384  1.0000
  S   S21       1.0  0.6589278372188612  0.177447222789751  0.21564895235589815  1.0000
  S   S22       1.0  0.32638242903848486  0.050945820772076905  0.21525686753662818  1.0000
  S   S23       1.0  0.6438772826032382  0.5001398687045897  0.8605664409583643  1.0000
  S   S24       1.0  0.31256349802556976  0.5575926525961197  0.5441425053999515  1.0000
