data_image0
_chemical_formula_structural       Li20Ge2P4S24
_chemical_formula_sum              "Li20 Ge2 P4 S24"
_cell_length_a       8.511367195982983
_cell_length_b       8.71830941582981
_cell_length_c       14.282366046894458
_cell_angle_alpha    80.7610549159795
_cell_angle_beta     75.00958482327894
_cell_angle_gamma    74.43359664435279

_space_group_name_H-M_alt    "P 1"
_space_group_IT_number       1

loop_
  _space_group_symop_operation_xyz
  'x, y, z'

loop_
  _atom_site_type_symbol
  _atom_site_label
  _atom_site_symmetry_multiplicity
  _atom_site_fract_x
  _atom_site_fract_y
  _atom_site_fract_z
  _atom_site_occupancy
  Li  Li1       1.0  0.3524550267633929  0.788466866121784  0.07171082889849957  1.0000
  Li  Li2       1.0  0.9511006773936098  0.17221018335364602  0.13966084581657204  1.0000
  Li  Li3       1.0  0.8562700321936058  0.31817375599373143  0.37595580144229696  1.0000
  Li  Li4       1.0  0.1056676627536666  0.5367846974253869  0.43720541646995864  1.0000
  Li  Li5       1.0  0.6428207997885426  0.43374115953337333  0.19899505150606722  1.0000
  Li  Li6       1.0  0.4596465534912516  0.14128036225984034  0.3874251918469429  1.0000
  Li  Li7       1.0  0.2448751511601688  0.27564733722454854  0.5802193615193015  1.0000
  Li  Li8       1.0  0.3244540610281288  0.1754352654414725  0.940716112486179  1.0000
  Li  Li9       1.0  0.6784791963343751  0.7705575400045218  0.9224353170964772  1.0000
  Li  Li10      1.0  0.9754547928794977  0.5490568198193928  0.04408676186943306  1.0000
  Li  Li11      1.0  0.13708036499704104  0.7908527760491256  0.693433332360507  1.0000
  Li  Li12      1.0  0.8159759986638169  0.6734516291937297  0.7146047199529393  1.0000
  Li  Li13      1.0  0.4804262099968141  0.04972878564008534  0.7603744755580601  1.0000
  Li  Li14      1.0  0.18645431083633046  0.3413596325429137  0.24610880858155068  1.0000
  Li  Li15      1.0  0.8163662869684888  0.6973879962473478  0.2350408941763752  1.0000
  Li  Li16      1.0  0.8584905634355076  0.2672656911838092  0.5716104321175093  1.0000
  Li  Li17      1.0  0.09372857979869856  0.9664933030736292  0.4927642897997255  1.0000
  Li  Li18      1.0  0.1380320600441464  0.00779854204719029  0.8749096810419306  1.0000
  Li  Li19      1.0  0.7253838244855234  0.2783699803630331  0.7887793361078697  1.0000
  Li  Li20      1.0  0.3426950408441993  0.6418318425118119  0.8862929904734693  1.0000
  Ge  Ge1       1.0  0.5889414350790032  0.023272692595014254  0.11940837423204889  1.0000
  Ge  Ge2       1.0  0.10570549446969431  0.4153543144829979  0.8195527605223745  1.0000
  P   P1        1.0  0.5950348833444877  0.40253080338544306  0.011528662528982882  1.0000
  P   P2        1.0  0.701607628750698  0.9766836849022529  0.5659048199333396  1.0000
  P   P3        1.0  0.4578581103124262  0.6112545726804199  0.43602257597331107  1.0000
  P   P4        1.0  0.2358403495644176  0.9275926795053058  0.30045873635724746  1.0000
  S   S1        1.0  0.19144124208535798  0.7348352994138223  0.24847459471440267  1.0000
  S   S2        1.0  0.3438700974939061  0.49029091026757093  0.07066626056431068  1.0000
  S   S3        1.0  0.27643830542355957  0.004664076894169571  0.6745537612507634  1.0000
  S   S4        1.0  0.8750826820296623  0.8450689166405119  0.468515619182807  1.0000
  S   S5        1.0  0.017253673941145832  0.2600067110811906  0.9524274764810683  1.0000
  S   S6        1.0  0.8105551276041386  0.9945108386176875  0.6817104053575705  1.0000
  S   S7        1.0  0.10828414726502454  0.2498848494022868  0.4446532291689963  1.0000
  S   S8        1.0  0.6777306672998583  0.5515796733148814  0.47529869287447535  1.0000
  S   S9        1.0  0.9207028934254141  0.41974941972459895  0.20878514640484594  1.0000
  S   S10       1.0  0.3984624482862076  0.89971310889136  0.908080811217602  1.0000
  S   S11       1.0  0.6700309750307091  0.7668134686778089  0.09608472906461428  1.0000
  S   S12       1.0  0.9867990880822478  0.40093523103724316  0.6970287400282393  1.0000
  S   S13       1.0  0.513573933585538  0.8474900099220208  0.6306072210924418  1.0000
  S   S14       1.0  0.42445465300566565  0.4637576506569228  0.34870867113657633  1.0000
  S   S15       1.0  0.030475819436383764  0.6740548330077213  0.8582483847554423  1.0000
  S   S16       1.0  0.6139772804002077  0.16609036020326678  0.9706076544824408  1.0000
  S   S17       1.0  0.47313072416324986  0.8347796992164376  0.3471799120965988  1.0000
  S   S18       1.0  0.03437411030606485  0.8482002748374206  0.15343033117358829  1.0000
  S   S19       1.0  0.6039451284865152  0.19982756799188803  0.5101913875291035  1.0000
  S   S20       1.0  0.38287789688128215  0.3461063526822665  0.7810619893320832  1.0000
  S   S21       1.0  0.6631997220116238  0.13243427740373812  0.22265208632650976  1.0000
  S   S22       1.0  0.29862415143932586  0.07418030743906968  0.1687704891973395  1.0000
  S   S23       1.0  0.6439145519381713  0.5167597974853942  0.8722793090671589  1.0000
  S   S24       1.0  0.24009891278244522  0.6503006888547136  0.5407920646257947  1.0000
