data_image0
_chemical_formula_structural       Li20Ge2P4S24Li20Ge2P4S24Li20Ge2P4S24Li20Ge2P4S24Li20Ge2P4S24Li20Ge2P4S24Li20Ge2P4S24Li20Ge2P4S24
_chemical_formula_sum              "Li160 Ge16 P32 S192"
_cell_length_a       15.986461386445502
_cell_length_b       16.216217951139228
_cell_length_c       25.64135303232868
_cell_angle_alpha    78.67736728855606
_cell_angle_beta     74.43693296077464
_cell_angle_gamma    71.90076422366248

_space_group_name_H-M_alt    "P 1"
_space_group_IT_number       1

loop_
  _space_group_symop_operation_xyz
  'x, y, z'

loop_
  _atom_site_type_symbol
  _atom_site_label
  _atom_site_symmetry_multiplicity
  _atom_site_fract_x
  _atom_site_fract_y
  _atom_site_fract_z
  _atom_site_occupancy
  Li  Li1       1.0  0.19465451840656375  0.37452293630512073  0.0332866635381659  1.0000
  Li  Li2       1.0  0.45623367540245413  0.09403852382261066  0.07941178233571934  1.0000
  Li  Li3       1.0  0.40644319393123135  0.14846556069682124  0.19479320840023742  1.0000
  Li  Li4       1.0  0.043706135440423656  0.2663310631214249  0.21645807192006178  1.0000
  Li  Li5       1.0  0.3067986799218563  0.23920190426151727  0.0956901988732747  1.0000
  Li  Li6       1.0  0.1995665134871431  0.07808170560768878  0.19898230540118353  1.0000
  Li  Li7       1.0  0.1308015565144056  0.15578057343322724  0.2856716015165427  1.0000
  Li  Li8       1.0  0.19009108184584558  0.09979827222729445  0.47073869047033456  1.0000
  Li  Li9       1.0  0.3674609636293301  0.42548415605455364  0.43798337626393685  1.0000
  Li  Li10      1.0  0.5120304523593083  0.2794164052519329  0.031243640953987597  1.0000
  Li  Li11      1.0  0.03770912386333593  0.4163603657490954  0.3545910954206879  1.0000
  Li  Li12      1.0  0.4087876311491153  0.32986748221595097  0.3194752991083437  1.0000
  Li  Li13      1.0  0.24793160601575098  0.03542595825304593  0.3651696407789533  1.0000
  Li  Li14      1.0  0.09862537613974276  0.16865565600523003  0.12736982199895766  1.0000
  Li  Li15      1.0  0.39724291767287295  0.3630751198816373  0.1301514393767851  1.0000
  Li  Li16      1.0  0.42816150357172056  0.09933467530112829  0.2977589586198225  1.0000
  Li  Li17      1.0  0.030442337856399507  0.4664025261918121  0.24787064723139435  1.0000
  Li  Li18      1.0  0.055411151294927644  0.01383033898332435  0.44779534882599004  1.0000
  Li  Li19      1.0  0.34347548719432686  0.16846332070444267  0.3897625926817027  1.0000
  Li  Li20      1.0  0.19011550362318505  0.3214565817387583  0.4257705298897712  1.0000
  Ge  Ge1       1.0  0.3006332964656348  0.00946660284959571  0.05545125313966628  1.0000
  Ge  Ge2       1.0  0.05114134615973705  0.22807713955330952  0.4140782793034755  1.0000
  P   P1        1.0  0.33734724686540224  0.20000458189699444  0.9961341664513175  1.0000
  P   P2        1.0  0.31145901210346755  0.45117692522852115  0.25230753573590586  1.0000
  P   P3        1.0  0.2234265659744215  0.3072120260196964  0.24775939172426592  1.0000
  P   P4        1.0  0.06539038783864645  0.46374872403868067  0.12224596301707556  1.0000
  S   S1        1.0  0.1366642692978358  0.3317248593698844  0.134159968345244  1.0000
  S   S2        1.0  0.19818142483695722  0.22764338756614605  0.020284213848766632  1.0000
  S   S3        1.0  0.11765924756170593  0.017549164307410707  0.33949902988284647  1.0000
  S   S4        1.0  0.4378950865271327  0.4060197301655312  0.20802337270217516  1.0000
  S   S5        1.0  0.0250226778029188  0.1459424728973469  0.49089924330269424  1.0000
  S   S6        1.0  0.4017603482060192  0.4696836569478952  0.33649050516059137  1.0000
  S   S7        1.0  0.04636452099235505  0.11800621106564409  0.2240339806297055  1.0000
  S   S8        1.0  0.33922451386644753  0.24534088096430925  0.2762705318896519  1.0000
  S   S9        1.0  0.45454420333462775  0.2178011206548217  0.11536321699062202  1.0000
  S   S10       1.0  0.20766939677535645  0.4573775883456523  0.4508949173908488  1.0000
  S   S11       1.0  0.343695672321029  0.37240823506686493  0.04626897678130898  1.0000
  S   S12       1.0  0.4945634355473488  0.17672824408375484  0.3565712186879535  1.0000
  S   S13       1.0  0.22113218674078372  0.40176476688027885  0.3270992688754429  1.0000
  S   S14       1.0  0.2314197060438591  0.22692014793647816  0.19263800663115677  1.0000
  S   S15       1.0  0.02627968122401801  0.35791993106406694  0.443335221535793  1.0000
  S   S16       1.0  0.36712660502496525  0.07039662862950546  0.47010957255242136  1.0000
  S   S17       1.0  0.23917391202485955  0.4237265409995479  0.19517266965318006  1.0000
  S   S18       1.0  0.5145337139326805  0.4401524799215864  0.06262419388925672  1.0000
  S   S19       1.0  0.2923310359903838  0.07935316179844278  0.2563758175019531  1.0000
  S   S20       1.0  0.19863433560936325  0.1877223678921389  0.38010410474520784  1.0000
  S   S21       1.0  0.3132872625795749  0.07604447538427239  0.11825898124409297  1.0000
  S   S22       1.0  0.14801796956388968  0.0463865107396211  0.07579469090974032  1.0000
  S   S23       1.0  0.35147457445782887  0.2853849679445588  0.4258036901809294  1.0000
  S   S24       1.0  0.09332871725105618  0.31663201542139985  0.28898031812298736  1.0000
  Li  Li21      1.0  0.194654525842497  0.3745229427833035  0.5332866630604622  1.0000
  Li  Li22      1.0  0.4562336751327895  0.09403851972417465  0.5794117746189861  1.0000
  Li  Li23      1.0  0.4064432052370944  0.14846554513617352  0.6947932045934261  1.0000
  Li  Li24      1.0  0.043706123552801755  0.26633106223136743  0.7164580798052077  1.0000
  Li  Li25      1.0  0.30679868181162495  0.2392018962662907  0.5956901972208916  1.0000
  Li  Li26      1.0  0.19956651564176484  0.0780817056215062  0.6989823000531054  1.0000
  Li  Li27      1.0  0.13080155821634204  0.15578056662571133  0.7856716040014597  1.0000
  Li  Li28      1.0  0.1900910762424431  0.09979826727493175  0.9707386891420846  1.0000
  Li  Li29      1.0  0.367460962753566  0.4254841561497539  0.937983381911972  1.0000
  Li  Li30      1.0  0.5120304497254128  0.279416401274324  0.5312436473248188  1.0000
  Li  Li31      1.0  0.03770911885834617  0.4163603680092187  0.8545910927239654  1.0000
  Li  Li32      1.0  0.40878763070304974  0.32986746849363485  0.819475299182136  1.0000
  Li  Li33      1.0  0.2479316122764699  0.03542596083153018  0.8651696363705661  1.0000
  Li  Li34      1.0  0.09862535861630561  0.16865566178175842  0.6273698315580255  1.0000
  Li  Li35      1.0  0.3972429106204428  0.3630751100595683  0.6301514461269111  1.0000
  Li  Li36      1.0  0.42816149673911613  0.0993346701863512  0.797758955646767  1.0000
  Li  Li37      1.0  0.030442334052741996  0.4664025240269215  0.7478706445021523  1.0000
  Li  Li38      1.0  0.05541115396022346  0.013830338526189784  0.947795347137328  1.0000
  Li  Li39      1.0  0.34347548732418887  0.16846331042960966  0.8897625960724797  1.0000
  Li  Li40      1.0  0.19011550422878626  0.3214565844737355  0.9257705317349838  1.0000
  Ge  Ge3       1.0  0.3006332906842825  0.00946659365182309  0.5554512579193314  1.0000
  Ge  Ge4       1.0  0.05114134384287198  0.22807714899028997  0.9140782799300423  1.0000
  P   P5        1.0  0.3373472457330136  0.20000458377729255  0.49613416625154055  1.0000
  P   P6        1.0  0.31145902648623136  0.4511769184734686  0.7523075517341864  1.0000
  P   P7        1.0  0.2234265476710519  0.30721203480033493  0.7477593935046082  1.0000
  P   P8        1.0  0.0653904028301009  0.46374872636217884  0.6222459766028328  1.0000
  S   S25       1.0  0.13666425702176285  0.3317248375688892  0.634159960574741  1.0000
  S   S26       1.0  0.19818142820857126  0.22764338706199644  0.5202842122679171  1.0000
  S   S27       1.0  0.11765924112164768  0.017549163630824396  0.8394990286729375  1.0000
  S   S28       1.0  0.4378950802324389  0.40601972423622007  0.7080233699311532  1.0000
  S   S29       1.0  0.025022681665518614  0.1459424703805333  0.9908992463222543  1.0000
  S   S30       1.0  0.4017603376663095  0.46968365263117773  0.8364904935494824  1.0000
  S   S31       1.0  0.046364521649609164  0.11800621133654535  0.7240339812904918  1.0000
  S   S32       1.0  0.3392245149788522  0.2453408762234228  0.776270527517761  1.0000
  S   S33       1.0  0.4545441975307892  0.21780111428111965  0.6153632145773335  1.0000
  S   S34       1.0  0.20766939622910743  0.4573775918223155  0.9508949229434862  1.0000
  S   S35       1.0  0.3436956693792245  0.3724082558959199  0.5462689780779175  1.0000
  S   S36       1.0  0.4945634337919655  0.17672823646033323  0.8565712178467032  1.0000
  S   S37       1.0  0.2211321689925898  0.4017647601609124  0.8270992758635196  1.0000
  S   S38       1.0  0.23141969885004746  0.22692016116765312  0.6926380022298684  1.0000
  S   S39       1.0  0.026279687454011574  0.35791992176550375  0.9433352142271174  1.0000
  S   S40       1.0  0.36712660612060954  0.0703966313801497  0.9701095740607524  1.0000
  S   S41       1.0  0.23917391897303586  0.42372654787013864  0.695172677112905  1.0000
  S   S42       1.0  0.514533729551496  0.4401524669701148  0.562624220039775  1.0000
  S   S43       1.0  0.2923310403086915  0.07935317268758245  0.7563758093298135  1.0000
  S   S44       1.0  0.198634332850463  0.18772237057965996  0.8801041063417586  1.0000
  S   S45       1.0  0.3132872705533056  0.0760444679565302  0.6182589789229195  1.0000
  S   S46       1.0  0.1480179676922731  0.046386519177589736  0.5757946964948791  1.0000
  S   S47       1.0  0.35147457225434825  0.28538496814647574  0.9258036868342598  1.0000
  S   S48       1.0  0.09332870757598719  0.3166320197895664  0.7889803210044067  1.0000
  Li  Li41      1.0  0.1946545279360027  0.8745229897769532  0.03328666248265543  1.0000
  Li  Li42      1.0  0.4562336778098848  0.5940385110376969  0.07941176513868846  1.0000
  Li  Li43      1.0  0.40644322747371275  0.648465504980119  0.19479319375046902  1.0000
  Li  Li44      1.0  0.043706090468871875  0.7663310482685999  0.21645809871959903  1.0000
  Li  Li45      1.0  0.30679869964437095  0.7392018845108301  0.0956901794957344  1.0000
  Li  Li46      1.0  0.19956652775175102  0.5780817220012395  0.19898228155136746  1.0000
  Li  Li47      1.0  0.1308015579795468  0.6557805499098818  0.28567161607683716  1.0000
  Li  Li48      1.0  0.19009107537001982  0.5997982663411778  0.4707387003744845  1.0000
  Li  Li49      1.0  0.36746096297138103  0.92548415382061  0.4379833824569865  1.0000
  Li  Li50      1.0  0.5120304510324191  0.779416405202256  0.031243643123005062  1.0000
  Li  Li51      1.0  0.037709121834451846  0.9163603601764608  0.35459109070929967  1.0000
  Li  Li52      1.0  0.40878762366017457  0.8298674767413083  0.31947529382782924  1.0000
  Li  Li53      1.0  0.24793161752687443  0.5354259515721794  0.36516963598334745  1.0000
  Li  Li54      1.0  0.09862530506377819  0.6686556651122887  0.12736985192528233  1.0000
  Li  Li55      1.0  0.3972429163462342  0.8630750953749613  0.13015144356279595  1.0000
  Li  Li56      1.0  0.4281614668004709  0.5993346813124707  0.2977589572839857  1.0000
  Li  Li57      1.0  0.030442326881154388  0.9664025390302741  0.2478706348644655  1.0000
  Li  Li58      1.0  0.055411145435249075  0.5138303450147438  0.4477953584003247  1.0000
  Li  Li59      1.0  0.3434754849633518  0.6684633232822996  0.38976259607450603  1.0000
  Li  Li60      1.0  0.1901154990366001  0.8214565838859791  0.4257705402604193  1.0000
  Ge  Ge5       1.0  0.30063328494930547  0.5094665925525113  0.05545125183093238  1.0000
  Ge  Ge6       1.0  0.051141353725259985  0.72807714773853  0.4140782754972004  1.0000
  P   P9        1.0  0.3373472513974038  0.7000045785705402  0.9961341629998963  1.0000
  P   P10       1.0  0.3114590310028394  0.9511769095522559  0.25230754755695506  1.0000
  P   P11       1.0  0.22342654499573633  0.807212036909057  0.24775938204269723  1.0000
  P   P12       1.0  0.06539042162784885  0.9637487443950533  0.1222460347023136  1.0000
  S   S49       1.0  0.1366642470499933  0.8317247882879015  0.13415996342401942  1.0000
  S   S50       1.0  0.19818144142465438  0.7276433992615704  0.020284214307422357  1.0000
  S   S51       1.0  0.1176592383987735  0.5175491674536825  0.3394990374444036  1.0000
  S   S52       1.0  0.4378950873636012  0.9060197123492494  0.2080233671870592  1.0000
  S   S53       1.0  0.02502268648233708  0.6459424791460897  0.4908992448730051  1.0000
  S   S54       1.0  0.40176033627111174  0.969683652680942  0.3364904934162393  1.0000
  S   S55       1.0  0.04636452193860221  0.6180061980013727  0.22403398591672197  1.0000
  S   S56       1.0  0.33922451058939523  0.7453408664113875  0.27627050849834484  1.0000
  S   S57       1.0  0.454544194702561  0.7178010922722774  0.11536321599830282  1.0000
  S   S58       1.0  0.20766939532592926  0.9573775861580386  0.450894916053241  1.0000
  S   S59       1.0  0.34369567105583376  0.8724082509189286  0.04626898408186209  1.0000
  S   S60       1.0  0.49456343036077116  0.6767282461098818  0.356571218735484  1.0000
  S   S61       1.0  0.22113216967005397  0.9017647360368367  0.32709927598679744  1.0000
  S   S62       1.0  0.23141967483079454  0.7269202127366307  0.1926379732742169  1.0000
  S   S63       1.0  0.026279686457174857  0.8579199339729774  0.44333521909302237  1.0000
  S   S64       1.0  0.36712659207859466  0.5703966295990126  0.47010957218318006  1.0000
  S   S65       1.0  0.23917391719974793  0.9237265561401476  0.19517266907263187  1.0000
  S   S66       1.0  0.5145337170919696  0.9401524841923888  0.06262422040521147  1.0000
  S   S67       1.0  0.2923310196226859  0.5793531873307254  0.256375796688552  1.0000
  S   S68       1.0  0.19863434056345974  0.6877223655977827  0.38010410441072906  1.0000
  S   S69       1.0  0.31328728577559806  0.5760444550874106  0.11825897255322244  1.0000
  S   S70       1.0  0.14801795296206854  0.546386547721813  0.07579470428138735  1.0000
  S   S71       1.0  0.3514745684171287  0.7853849746440446  0.42580368642550465  1.0000
  S   S72       1.0  0.09332871567950028  0.8166320001327482  0.28898031275091457  1.0000
  Li  Li61      1.0  0.1946545291861293  0.8745229823502758  0.5332866647699526  1.0000
  Li  Li62      1.0  0.45623368564954647  0.5940385032923203  0.5794117715404868  1.0000
  Li  Li63      1.0  0.40644321636374237  0.6484655208561158  0.6947932008522107  1.0000
  Li  Li64      1.0  0.0437060871729917  0.7663310504841891  0.7164580948886208  1.0000
  Li  Li65      1.0  0.30679869299381146  0.7392018905737908  0.5956901839474102  1.0000
  Li  Li66      1.0  0.19956652109636094  0.5780817176700868  0.6989822869920981  1.0000
  Li  Li67      1.0  0.1308015493216419  0.6557805599272701  0.7856716072713229  1.0000
  Li  Li68      1.0  0.19009106949566554  0.5997982746604947  0.9707387026843026  1.0000
  Li  Li69      1.0  0.3674609585338886  0.9254841553033646  0.9379833850482744  1.0000
  Li  Li70      1.0  0.5120304448579674  0.7794164053249023  0.5312436426044351  1.0000
  Li  Li71      1.0  0.03770911264910884  0.9163603589821097  0.8545910937329506  1.0000
  Li  Li72      1.0  0.40878762160969206  0.8298674691796788  0.8194752960211772  1.0000
  Li  Li73      1.0  0.24793160723220148  0.5354259586031618  0.8651696441743314  1.0000
  Li  Li74      1.0  0.0986253163298415  0.6686556676459431  0.627369847525734  1.0000
  Li  Li75      1.0  0.3972429164327198  0.8630751019806969  0.6301514425294996  1.0000
  Li  Li76      1.0  0.42816147378801317  0.5993346828962867  0.7977589569225454  1.0000
  Li  Li77      1.0  0.030442325036945574  0.9664025399737297  0.7478706432785255  1.0000
  Li  Li78      1.0  0.05541114815089615  0.5138303396138655  0.9477953654620578  1.0000
  Li  Li79      1.0  0.3434754902812718  0.6684633217049826  0.8897625972063076  1.0000
  Li  Li80      1.0  0.19011550432896415  0.8214565847260102  0.9257705351808962  1.0000
  Ge  Ge7       1.0  0.3006332970203555  0.5094665908731404  0.5554512535770763  1.0000
  Ge  Ge8       1.0  0.05114135440920804  0.728077148516386  0.9140782775044337  1.0000
  P   P13       1.0  0.33734726382995767  0.7000045814476291  0.49613415809931993  1.0000
  P   P14       1.0  0.3114590505950928  0.9511769138942032  0.7523075473533828  1.0000
  P   P15       1.0  0.2234265531619485  0.8072120377684946  0.7477593852044532  1.0000
  P   P16       1.0  0.06539041813984535  0.9637487477373036  0.6222460206076803  1.0000
  S   S73       1.0  0.13666425159991683  0.8317247957072978  0.6341599651409282  1.0000
  S   S74       1.0  0.19818144016576045  0.7276433988464432  0.5202842197293924  1.0000
  S   S75       1.0  0.11765923961888404  0.5175491693441764  0.8394990387696272  1.0000
  S   S76       1.0  0.4378950895559029  0.9060197271347352  0.7080233658743169  1.0000
  S   S77       1.0  0.02502268525644559  0.6459424828607219  0.990899238802536  1.0000
  S   S78       1.0  0.40176033712974146  0.9696836497423325  0.8364904927577732  1.0000
  S   S79       1.0  0.046364524697435676  0.618006205769648  0.7240339806920135  1.0000
  S   S80       1.0  0.33922451663336106  0.7453408663431026  0.7762705101239961  1.0000
  S   S81       1.0  0.45454420241173  0.7178011043987306  0.6153632154324229  1.0000
  S   S82       1.0  0.20766939695793246  0.9573775867876189  0.9508949151862065  1.0000
  S   S83       1.0  0.3436956658206731  0.8724082533512488  0.5462689833058543  1.0000
  S   S84       1.0  0.4945634296699177  0.6767282390876884  0.8565712133233941  1.0000
  S   S85       1.0  0.2211321674839569  0.9017647435526599  0.8270992721830118  1.0000
  S   S86       1.0  0.2314196820340791  0.7269201987565745  0.6926379804221009  1.0000
  S   S87       1.0  0.02627968567955908  0.8579199396057549  0.9433352242040441  1.0000
  S   S88       1.0  0.3671265899824966  0.5703966288040823  0.9701095714746244  1.0000
  S   S89       1.0  0.23917391985189254  0.9237265565944413  0.6951726701911392  1.0000
  S   S90       1.0  0.5145337133368006  0.9401524890334579  0.5626242018157219  1.0000
  S   S91       1.0  0.29233101810276935  0.5793531931263282  0.7563757999123554  1.0000
  S   S92       1.0  0.19863434444805542  0.6877223650383174  0.8801041066739186  1.0000
  S   S93       1.0  0.31328728321290866  0.5760444525311981  0.6182589757033554  1.0000
  S   S94       1.0  0.148017955133354  0.5463865416575404  0.5757947047471896  1.0000
  S   S95       1.0  0.3514745707367561  0.785384978950973  0.925803683421018  1.0000
  S   S96       1.0  0.09332871563311297  0.8166320052141937  0.7889803107646585  1.0000
  Li  Li81      1.0  0.6946545260857562  0.37452295403518343  0.03328666394951995  1.0000
  Li  Li82      1.0  0.9562336917500606  0.09403851800407535  0.07941178015206997  1.0000
  Li  Li83      1.0  0.9064432022618739  0.14846554555454652  0.1947932071815143  1.0000
  Li  Li84      1.0  0.5437061018862072  0.2663310622836621  0.21645808553925006  1.0000
  Li  Li85      1.0  0.806798694382633  0.2392018949641419  0.09569019509971852  1.0000
  Li  Li86      1.0  0.6995665220400161  0.0780817158203588  0.1989822975981672  1.0000
  Li  Li87      1.0  0.6308015513904297  0.15578056535090687  0.2856716062015709  1.0000
  Li  Li88      1.0  0.6900910787339513  0.09979827419007484  0.470738695344184  1.0000
  Li  Li89      1.0  0.8674609564984271  0.4254841556728277  0.43798338070661746  1.0000
  Li  Li90      1.0  0.012030446328233024  0.27941640456639855  0.031243645333152346  1.0000
  Li  Li91      1.0  0.5377091220752372  0.4163603588737349  0.354591096907334  1.0000
  Li  Li92      1.0  0.9087876358004194  0.3298674656142344  0.3194752972223578  1.0000
  Li  Li93      1.0  0.7479316170956454  0.0354259600693803  0.36516964173507843  1.0000
  Li  Li94      1.0  0.5986253499679408  0.1686556592282558  0.12736982707796907  1.0000
  Li  Li95      1.0  0.8972429268312831  0.36307511637338113  0.13015143659868322  1.0000
  Li  Li96      1.0  0.9281614923641128  0.09933467837416692  0.29775895897587124  1.0000
  Li  Li97      1.0  0.5304423124315274  0.4664025331852964  0.24787065810792058  1.0000
  Li  Li98      1.0  0.5554111516600975  0.013830344102160967  0.4477953542624412  1.0000
  Li  Li99      1.0  0.8434754974484356  0.16846331656346222  0.3897625934301738  1.0000
  Li  Li100     1.0  0.6901155064400485  0.32145657704107994  0.42577053270922866  1.0000
  Ge  Ge9       1.0  0.8006333027768892  0.009466594275797605  0.0554512570891736  1.0000
  Ge  Ge10      1.0  0.551141353849654  0.22807714597578033  0.414078277010511  1.0000
  P   P17       1.0  0.8373472566322692  0.2000045786947726  0.9961341643105731  1.0000
  P   P18       1.0  0.8114590500845523  0.45117690581587394  0.2523075453684508  1.0000
  P   P19       1.0  0.7234265500698918  0.30721203791597973  0.24775938939508793  1.0000
  P   P20       1.0  0.5653903961920452  0.46374873397746624  0.12224599290551949  1.0000
  S   S97       1.0  0.6366642605160071  0.33172482733959446  0.13415996961371646  1.0000
  S   S98       1.0  0.6981814329937969  0.2276433956196477  0.020284222469958247  1.0000
  S   S99       1.0  0.617659238587103  0.01754917266020133  0.33949903931938913  1.0000
  S   S100      1.0  0.9378951001813561  0.4060197294772004  0.20802336660597884  1.0000
  S   S101      1.0  0.5250226848927295  0.14594247475794297  0.4908992454493914  1.0000
  S   S102      1.0  0.9017603406652719  0.46968365108512544  0.3364904950326757  1.0000
  S   S103      1.0  0.5463645269732351  0.11800621179418874  0.22403397758933427  1.0000
  S   S104      1.0  0.8392245230223991  0.24534086854630824  0.2762705214705111  1.0000
  S   S105      1.0  0.9545442139497015  0.21780111435139995  0.11536321810047397  1.0000
  S   S106      1.0  0.7076693892672026  0.4573775894747721  0.45089491814979704  1.0000
  S   S107      1.0  0.8436956560677361  0.37240824403977757  0.04626897790285807  1.0000
  S   S108      1.0  0.9945634350227495  0.1767282387250482  0.35657121322295  1.0000
  S   S109      1.0  0.7211321756224242  0.4017647552929071  0.3270992736937923  1.0000
  S   S110      1.0  0.7314196972690438  0.22692017571785592  0.19263799168712498  1.0000
  S   S111      1.0  0.5262796920543645  0.3579199300659681  0.4433352253073578  1.0000
  S   S112      1.0  0.8671265992154817  0.07039663186621224  0.4701095682285115  1.0000
  S   S113      1.0  0.7391739245375463  0.42372654887119954  0.19517267017615983  1.0000
  S   S114      1.0  0.014533691993460662  0.44015249829290104  0.06262417196503539  1.0000
  S   S115      1.0  0.7923310284037591  0.07935318256850343  0.25637581180964775  1.0000
  S   S116      1.0  0.6986343340287725  0.1877223716090778  0.3801041102202392  1.0000
  S   S117      1.0  0.8132872864323584  0.0760444575529242  0.1182589790378339  1.0000
  S   S118      1.0  0.648017969851515  0.04638651784680205  0.07579469819919586  1.0000
  S   S119      1.0  0.8514745751166584  0.28538497029458076  0.4258036859303027  1.0000
  S   S120      1.0  0.5933287196324171  0.31663201442481587  0.28898031733527463  1.0000
  Li  Li101     1.0  0.6946545280802578  0.37452297213034513  0.5332866621178866  1.0000
  Li  Li102     1.0  0.9562336913698338  0.09403851461856283  0.5794117747490234  1.0000
  Li  Li103     1.0  0.9064432111180492  0.1484655302801544  0.6947932038585194  1.0000
  Li  Li104     1.0  0.5437060934452811  0.26633105784013705  0.7164580899358373  1.0000
  Li  Li105     1.0  0.8067987052665427  0.23920188904807013  0.5956901847161519  1.0000
  Li  Li106     1.0  0.6995665276458036  0.07808171829077297  0.6989822892034757  1.0000
  Li  Li107     1.0  0.6308015475575459  0.15578056175180355  0.7856716053170437  1.0000
  Li  Li108     1.0  0.6900910748718829  0.09979826575594782  0.9707386961811447  1.0000
  Li  Li109     1.0  0.8674609593328045  0.42548415682607943  0.9379833813733043  1.0000
  Li  Li110     1.0  0.012030443715181027  0.2794164032955351  0.5312436406656224  1.0000
  Li  Li111     1.0  0.5377091108379011  0.41636035522756343  0.854591094623957  1.0000
  Li  Li112     1.0  0.9087876256882088  0.3298674642528229  0.8194752972514354  1.0000
  Li  Li113     1.0  0.7479316120565624  0.0354259610231817  0.8651696404752368  1.0000
  Li  Li114     1.0  0.5986253322637715  0.16865566671791501  0.6273698341708236  1.0000
  Li  Li115     1.0  0.8972429227408889  0.36307511027084893  0.6301514384843748  1.0000
  Li  Li116     1.0  0.9281614824572038  0.09933468282481207  0.7977589578904335  1.0000
  Li  Li117     1.0  0.5304423228980738  0.466402533196149  0.7478706428642122  1.0000
  Li  Li118     1.0  0.5554111518829276  0.01383034797753448  0.9477953493084013  1.0000
  Li  Li119     1.0  0.8434754887473983  0.16846331891127284  0.8897625939327133  1.0000
  Li  Li120     1.0  0.6901155026570462  0.321456577343851  0.9257705313955507  1.0000
  Ge  Ge11      1.0  0.8006332955665236  0.009466595250095891  0.5554512571051027  1.0000
  Ge  Ge12      1.0  0.5511413545579965  0.22807714582102048  0.9140782826695076  1.0000
  P   P21       1.0  0.8373472602878114  0.20000457902501748  0.49613416219757894  1.0000
  P   P22       1.0  0.811459042680626  0.4511769078306  0.7523075485089132  1.0000
  P   P23       1.0  0.7234265526810083  0.3072120386342463  0.7477593817964059  1.0000
  P   P24       1.0  0.5653904184654455  0.46374874190935245  0.6222460091359382  1.0000
  S   S121      1.0  0.6366642560891844  0.3317248050347344  0.6341599671314389  1.0000
  S   S122      1.0  0.698181429218514  0.22764340096294647  0.5202842208303847  1.0000
  S   S123      1.0  0.6176592383568513  0.017549170058006932  0.839499033841961  1.0000
  S   S124      1.0  0.9378950994735938  0.4060197217305754  0.7080233640588328  1.0000
  S   S125      1.0  0.5250226910809486  0.1459424727503024  0.9908992443289799  1.0000
  S   S126      1.0  0.9017603393693613  0.4696836503393056  0.8364904921871724  1.0000
  S   S127      1.0  0.5463645252896389  0.11800620732776997  0.7240339768809996  1.0000
  S   S128      1.0  0.8392245153154805  0.24534086612083486  0.7762705128950038  1.0000
  S   S129      1.0  0.9545442043363558  0.21780111005871683  0.6153632181849258  1.0000
  S   S130      1.0  0.7076693945982409  0.45737759655380356  0.9508949133521776  1.0000
  S   S131      1.0  0.843695660216654  0.3724082475624467  0.5462689815519118  1.0000
  S   S132      1.0  0.9945634331586563  0.17672823742105465  0.8565712126685244  1.0000
  S   S133      1.0  0.7211321726370834  0.40176474762782577  0.8270992705740106  1.0000
  S   S134      1.0  0.731419684775368  0.22692019001661667  0.6926379843177795  1.0000
  S   S135      1.0  0.5262796842372814  0.35791993046201204  0.9433352184916347  1.0000
  S   S136      1.0  0.8671266002647604  0.07039662870997086  0.9701095745977227  1.0000
  S   S137      1.0  0.7391739223477939  0.42372654869185555  0.695172677530703  1.0000
  S   S138      1.0  0.014533708327169048  0.44015249324364863  0.562624186634796  1.0000
  S   S139      1.0  0.7923310199043387  0.07935319158443793  0.7563758006274639  1.0000
  S   S140      1.0  0.6986343352322459  0.18772237305392975  0.8801041080177922  1.0000
  S   S141      1.0  0.8132872893303815  0.07604444992004072  0.618258972646672  1.0000
  S   S142      1.0  0.6480179666650383  0.04638653479660546  0.5757946989368454  1.0000
  S   S143      1.0  0.8514745729169267  0.28538496967392674  0.9258036881885472  1.0000
  S   S144      1.0  0.5933287171266498  0.3166320069692913  0.7889803136599564  1.0000
  Li  Li121     1.0  0.6946545206752974  0.8745229748954158  0.033286663658052905  1.0000
  Li  Li122     1.0  0.9562336635351423  0.5940385169376474  0.07941176526720874  1.0000
  Li  Li123     1.0  0.906443220754484  0.6484655164832756  0.19479320300179095  1.0000
  Li  Li124     1.0  0.5437061127924877  0.7663310479549506  0.21645808966500474  1.0000
  Li  Li125     1.0  0.8067986820382315  0.7392018935228313  0.09569018899683426  1.0000
  Li  Li126     1.0  0.6995665154463464  0.5780817038152366  0.19898229472487378  1.0000
  Li  Li127     1.0  0.6308015607364322  0.6557805563962132  0.28567160942846415  1.0000
  Li  Li128     1.0  0.6900910769512683  0.599798266559122  0.47073869080744796  1.0000
  Li  Li129     1.0  0.8674609606463023  0.9254841573312226  0.4379833840256263  1.0000
  Li  Li130     1.0  0.012030454222793363  0.7794164030075188  0.03124364250379587  1.0000
  Li  Li131     1.0  0.5377091205594327  0.9163603684432338  0.3545910920249744  1.0000
  Li  Li132     1.0  0.9087876228243409  0.8298674803548142  0.31947529463084356  1.0000
  Li  Li133     1.0  0.7479316172114733  0.5354259507685339  0.3651696361188762  1.0000
  Li  Li134     1.0  0.5986253375158931  0.668655658576732  0.1273698428654388  1.0000
  Li  Li135     1.0  0.8972429114922713  0.8630750924350551  0.13015145026507913  1.0000
  Li  Li136     1.0  0.9281614814859023  0.5993346741299101  0.297758958853735  1.0000
  Li  Li137     1.0  0.5304423375834217  0.9664025366498444  0.24787063224692843  1.0000
  Li  Li138     1.0  0.5554111514936967  0.513830341123902  0.4477953441072935  1.0000
  Li  Li139     1.0  0.8434754722056687  0.6684633253958625  0.3897625990946449  1.0000
  Li  Li140     1.0  0.6901154990267844  0.8214565868439946  0.425770536614656  1.0000
  Ge  Ge13      1.0  0.8006332927074182  0.5094665920010908  0.05545125788748379  1.0000
  Ge  Ge14      1.0  0.551141336396916  0.7280771401397803  0.414078271957523  1.0000
  P   P25       1.0  0.8373472517264904  0.7000045872618027  0.9961341604422654  1.0000
  P   P26       1.0  0.8114590143619514  0.9511769153934407  0.25230754961780616  1.0000
  P   P27       1.0  0.7234265510830051  0.8072120277748547  0.24775939078116002  1.0000
  P   P28       1.0  0.5653904180121476  0.963748753195633  0.1222460116501031  1.0000
  S   S145      1.0  0.636664261097233  0.8317248081693485  0.13415995742293743  1.0000
  S   S146      1.0  0.6981814258613716  0.7276433939423188  0.020284215255232715  1.0000
  S   S147      1.0  0.6176592442436248  0.5175491630705213  0.3394990237464854  1.0000
  S   S148      1.0  0.9378950768190518  0.906019709369629  0.20802337335404827  1.0000
  S   S149      1.0  0.5250226826371818  0.6459424770487381  0.49089924092158344  1.0000
  S   S150      1.0  0.9017603372144956  0.9696836600515699  0.3364904933572195  1.0000
  S   S151      1.0  0.5463645206785012  0.618006202148577  0.22403398191213741  1.0000
  S   S152      1.0  0.8392245061151019  0.7453408738479921  0.2762705152059817  1.0000
  S   S153      1.0  0.9545441793504766  0.717801104130899  0.11536321531182075  1.0000
  S   S154      1.0  0.7076693964509447  0.9573775835600737  0.4508949179142805  1.0000
  S   S155      1.0  0.8436956709759593  0.8724082586313548  0.046268983372621995  1.0000
  S   S156      1.0  0.9945634226414022  0.6767282560473838  0.356571220965571  1.0000
  S   S157      1.0  0.7211321752937795  0.9017647523992935  0.3270992672864917  1.0000
  S   S158      1.0  0.731419682196629  0.7269201778432787  0.19263798636671933  1.0000
  S   S159      1.0  0.5262796856942356  0.8579199275758349  0.44333522056811864  1.0000
  S   S160      1.0  0.8671266010199719  0.5703966283010172  0.470109573177201  1.0000
  S   S161      1.0  0.739173905157419  0.9237265489357674  0.19517267122957496  1.0000
  S   S162      1.0  0.014533730854309201  0.9401524627855775  0.06262424355156708  1.0000
  S   S163      1.0  0.7923310204875893  0.5793531919170691  0.25637579856197845  1.0000
  S   S164      1.0  0.6986343448051611  0.6877223613198228  0.38010410253713084  1.0000
  S   S165      1.0  0.8132872689171984  0.5760444589577575  0.11825897451746435  1.0000
  S   S166      1.0  0.6480179520106562  0.5463865353935026  0.07579469806850281  1.0000
  S   S167      1.0  0.8514745702580836  0.7853849727077162  0.42580368737188595  1.0000
  S   S168      1.0  0.5933287163375661  0.8166320122825478  0.2889803107679952  1.0000
  Li  Li141     1.0  0.6946545230138872  0.8745229599513173  0.5332866636537815  1.0000
  Li  Li142     1.0  0.9562336683753367  0.5940385197071577  0.5794117702443635  1.0000
  Li  Li143     1.0  0.9064432121152654  0.6484655281889333  0.6947932052176912  1.0000
  Li  Li144     1.0  0.5437061189900388  0.766331057030869  0.7164580834481421  1.0000
  Li  Li145     1.0  0.806798681688221  0.7392018970477263  0.5956901928666964  1.0000
  Li  Li146     1.0  0.6995665125581513  0.5780817101001219  0.6989823015493295  1.0000
  Li  Li147     1.0  0.6308015533684076  0.655780558086479  0.7856716085671168  1.0000
  Li  Li148     1.0  0.6900910754966308  0.599798270109357  0.9707386946620588  1.0000
  Li  Li149     1.0  0.867460963437196  0.9254841566101746  0.9379833820688317  1.0000
  Li  Li150     1.0  0.012030457085521418  0.7794164011598695  0.5312436445291113  1.0000
  Li  Li151     1.0  0.5377091082899658  0.9163603668903932  0.8545910948092676  1.0000
  Li  Li152     1.0  0.9087876219346266  0.8298674822623062  0.8194752989999147  1.0000
  Li  Li153     1.0  0.7479316121776252  0.5354259526873034  0.865169638877648  1.0000
  Li  Li154     1.0  0.5986253465739212  0.6686556543493054  0.627369837684956  1.0000
  Li  Li155     1.0  0.8972429099055368  0.8630751042396572  0.6301514491447177  1.0000
  Li  Li156     1.0  0.9281614833325776  0.5993346741398183  0.797758957421603  1.0000
  Li  Li157     1.0  0.5304423429516295  0.9664025285332493  0.7478706387309533  1.0000
  Li  Li158     1.0  0.5554111430984763  0.513830341232803  0.947795352204028  1.0000
  Li  Li159     1.0  0.8434754831691131  0.6684633220378003  0.8897625960628235  1.0000
  Li  Li160     1.0  0.6901155044256413  0.8214565885438923  0.9257705345752403  1.0000
  Ge  Ge15      1.0  0.8006332891550206  0.5094665993668579  0.5554512575403594  1.0000
  Ge  Ge16      1.0  0.5511413468916533  0.7280771438224711  0.9140782755215705  1.0000
  P   P29       1.0  0.8373472540503638  0.7000045817311702  0.4961341608544747  1.0000
  P   P30       1.0  0.8114590285816546  0.9511769189459117  0.7523075419982587  1.0000
  P   P31       1.0  0.7234265564885232  0.8072120229931092  0.7477593865844941  1.0000
  P   P32       1.0  0.5653904104125124  0.963748736558164  0.6222459977637175  1.0000
  S   S169      1.0  0.6366642602992765  0.8317248177174114  0.6341599645873978  1.0000
  S   S170      1.0  0.6981814226973045  0.7276433957199484  0.5202842162620013  1.0000
  S   S171      1.0  0.6176592426807497  0.5175491628421789  0.8394990295470298  1.0000
  S   S172      1.0  0.9378950751674862  0.9060197169432468  0.7080233753877976  1.0000
  S   S173      1.0  0.5250226851851669  0.6459424708186156  0.990899244400876  1.0000
  S   S174      1.0  0.9017603331167071  0.9696836670691513  0.8364904979013331  1.0000
  S   S175      1.0  0.5463645190912948  0.6180062067833219  0.7240339854900725  1.0000
  S   S176      1.0  0.839224516786501  0.7453408728721387  0.7762705192935198  1.0000
  S   S177      1.0  0.9545441946585623  0.7178011111591766  0.6153632137602001  1.0000
  S   S178      1.0  0.7076693988143286  0.9573775895555615  0.9508949144205074  1.0000
  S   S179      1.0  0.8436956710850796  0.8724082494453546  0.5462689839759918  1.0000
  S   S180      1.0  0.9945634262867491  0.6767282578487507  0.8565712188843447  1.0000
  S   S181      1.0  0.7211321790704532  0.9017647552116183  0.827099268824232  1.0000
  S   S182      1.0  0.7314196887467727  0.7269201708017567  0.6926379922956679  1.0000
  S   S183      1.0  0.5262796894496997  0.85791993081695  0.9433352208400188  1.0000
  S   S184      1.0  0.8671265965548102  0.5703966302435207  0.9701095689740828  1.0000
  S   S185      1.0  0.7391739103509796  0.9237265525950029  0.6951726701855602  1.0000
  S   S186      1.0  0.014533732939285615  0.9401524606748248  0.5626242242088081  1.0000
  S   S187      1.0  0.7923310277481861  0.5793531827947532  0.7563758043684535  1.0000
  S   S188      1.0  0.6986343367322869  0.687722362831303  0.880104108829172  1.0000
  S   S189      1.0  0.813287271738318  0.5760444604110024  0.6182589773200143  1.0000
  S   S190      1.0  0.6480179574470228  0.5463865259143905  0.5757946953243809  1.0000
  S   S191      1.0  0.8514745691569698  0.7853849735304118  0.9258036893245963  1.0000
  S   S192      1.0  0.5933287073951592  0.8166320099569285  0.7889803213946209  1.0000
