data_image0
_chemical_formula_structural       Li20Ge2P4S24Li20Ge2P4S24Li20Ge2P4S24Li20Ge2P4S24Li20Ge2P4S24Li20Ge2P4S24
_chemical_formula_sum              "Li120 Ge12 P24 S144"
_cell_length_a       7.92393398
_cell_length_b       16.0675373
_cell_length_c       38.017390260000006
_cell_angle_alpha    78.51114655
_cell_angle_beta     74.37251282
_cell_angle_gamma    71.6965332

_space_group_name_H-M_alt    "P 1"
_space_group_IT_number       1

loop_
  _space_group_symop_operation_xyz
  'x, y, z'

loop_
  _atom_site_type_symbol
  _atom_site_label
  _atom_site_symmetry_multiplicity
  _atom_site_fract_x
  _atom_site_fract_y
  _atom_site_fract_z
  _atom_site_occupancy
  Li  Li1       1.0  0.27621465999999967  0.39467448000000016  0.02502935333333333  1.0000
  Li  Li2       1.0  0.9095668799999997  0.074810615  0.05057518666666666  1.0000
  Li  Li3       1.0  0.7825962299999998  0.15481803  0.13043878333333334  1.0000
  Li  Li4       1.0  0.09557303999999991  0.272267195  0.14233461000000003  1.0000
  Li  Li5       1.0  0.51893556  0.25611329  0.07345830999999999  1.0000
  Li  Li6       1.0  0.45300659999999987  0.07282070000000002  0.1281927833333333  1.0000
  Li  Li7       1.0  0.26384499999999994  0.142712595  0.18985466  1.0000
  Li  Li8       1.0  0.34524545000000006  0.11554593000000003  0.3155280733333333  1.0000
  Li  Li9       1.0  0.7589846799999997  0.4200622150000002  0.29584666  1.0000
  Li  Li10      1.0  0.9860631799999999  0.2979676700000002  0.018069219999999997  1.0000
  Li  Li11      1.0  0.14627217999999992  0.41454255500000026  0.23836739999999998  1.0000
  Li  Li12      1.0  0.8499941199999994  0.3160679950000002  0.21721215999999996  1.0000
  Li  Li13      1.0  0.4989368299999998  0.013614395000000022  0.23886867333333328  1.0000
  Li  Li14      1.0  0.20830825000000003  0.16989936000000005  0.07196923999999999  1.0000
  Li  Li15      1.0  0.8178415899999998  0.3484821600000001  0.09094103333333331  1.0000
  Li  Li16      1.0  0.7565560899999997  0.1313166300000001  0.2102131033333333  1.0000
  Li  Li17      1.0  0.05470815000000009  0.4842321  0.17674333  1.0000
  Li  Li18      1.0  0.030192759999999954  0.02264528499999999  0.29462339333333337  1.0000
  Li  Li19      1.0  0.6306431299999999  0.19903677500000017  0.27735034666666664  1.0000
  Li  Li20      1.0  0.42557143999999997  0.3440459650000001  0.29464372000000005  1.0000
  Ge  Ge1       1.0  0.55883861  0.0018707300000000012  0.03549974  1.0000
  Ge  Ge2       1.0  0.07929710000000006  0.22569042500000003  0.26592941999999997  1.0000
  P   P1        1.0  0.7011666299999996  0.19055576500000007  0.008888196666666667  1.0000
  P   P2        1.0  0.64266968  0.42797798000000004  0.17009089333333333  1.0000
  P   P3        1.0  0.47217926000000005  0.321116685  0.17570891  1.0000
  P   P4        1.0  0.12973550999999992  0.467951385  0.09455400666666666  1.0000
  S   S1        1.0  0.19004633999999992  0.31106537500000014  0.07904590333333332  1.0000
  S   S2        1.0  0.39838492999999975  0.23196518500000007  0.006205109999999999  1.0000
  S   S3        1.0  0.26778504000000003  0.015707575000000012  0.2174602333333333  1.0000
  S   S4        1.0  0.9368693199999996  0.4418679750000001  0.12966296  1.0000
  S   S5        1.0  0.04190212  0.14382945000000008  0.31487901999999995  1.0000
  S   S6        1.0  0.8425375799999998  0.462920785  0.22910126000000006  1.0000
  S   S7        1.0  0.12579736  0.10117876500000006  0.13326075666666665  1.0000
  S   S8        1.0  0.7710598699999998  0.282354535  0.1603026  1.0000
  S   S9        1.0  0.8748817999999999  0.206668065  0.06391138333333332  1.0000
  S   S10       1.0  0.4228327299999994  0.47381565  0.3050860966666667  1.0000
  S   S11       1.0  0.6364306799999997  0.3682357350000002  0.03780385  1.0000
  S   S12       1.0  0.9695562699999996  0.15853607500000008  0.23308736000000005  1.0000
  S   S13       1.0  0.5534440899999999  0.35372618000000017  0.21879889666666666  1.0000
  S   S14       1.0  0.4405997399999997  0.22835925000000004  0.13937547666666666  1.0000
  S   S15       1.0  0.11612492000000005  0.3532916900000001  0.29338500999999995  1.0000
  S   S16       1.0  0.7151229999999993  0.061528295000000024  0.31608959  1.0000
  S   S17       1.0  0.4647342299999997  0.431075545  0.13287478666666666  1.0000
  S   S18       1.0  0.9740280500000001  0.445216415  0.045169980000000005  1.0000
  S   S19       1.0  0.6497229299999997  0.05674579000000001  0.16991061  1.0000
  S   S20       1.0  0.4303096200000002  0.17090142000000005  0.24603076666666665  1.0000
  S   S21       1.0  0.6075637299999999  0.10449618000000001  0.06317057666666666  1.0000
  S   S22       1.0  0.28271013  0.032236870000000015  0.05380921999999999  1.0000
  S   S23       1.0  0.7859617499999996  0.282940775  0.29513724666666674  1.0000
  S   S24       1.0  0.17879451999999973  0.30280614  0.20084826  1.0000
  Li  Li21      1.0  0.27621465999999983  0.3946744800000001  0.3583626866666667  1.0000
  Li  Li22      1.0  0.9095668799999996  0.074810615  0.38390852  1.0000
  Li  Li23      1.0  0.7825962299999999  0.15481803  0.4637721166666666  1.0000
  Li  Li24      1.0  0.09557303999999991  0.272267195  0.47566794333333334  1.0000
  Li  Li25      1.0  0.5189355599999999  0.25611329  0.4067916433333333  1.0000
  Li  Li26      1.0  0.4530066  0.07282070000000003  0.46152611666666665  1.0000
  Li  Li27      1.0  0.2638449999999999  0.142712595  0.5231879933333333  1.0000
  Li  Li28      1.0  0.34524545000000023  0.11554593000000005  0.6488614066666666  1.0000
  Li  Li29      1.0  0.75898468  0.4200622150000002  0.6291799933333333  1.0000
  Li  Li30      1.0  0.9860631800000003  0.29796767000000013  0.3514025533333333  1.0000
  Li  Li31      1.0  0.14627217999999992  0.4145425550000003  0.5717007333333333  1.0000
  Li  Li32      1.0  0.8499941199999997  0.3160679950000001  0.5505454933333332  1.0000
  Li  Li33      1.0  0.49893682999999966  0.013614395000000022  0.5722020066666667  1.0000
  Li  Li34      1.0  0.2083082499999999  0.16989936000000008  0.4053025733333333  1.0000
  Li  Li35      1.0  0.8178415899999999  0.34848216000000004  0.4242743666666666  1.0000
  Li  Li36      1.0  0.7565560899999995  0.1313166300000001  0.5435464366666667  1.0000
  Li  Li37      1.0  0.05470815000000014  0.48423210000000005  0.5100766633333332  1.0000
  Li  Li38      1.0  0.030192759999999954  0.02264528499999999  0.6279567266666667  1.0000
  Li  Li39      1.0  0.6306431299999999  0.1990367750000002  0.6106836799999998  1.0000
  Li  Li40      1.0  0.4255714399999998  0.34404596500000023  0.6279770533333333  1.0000
  Ge  Ge3       1.0  0.5588386099999999  0.0018707299999999995  0.3688330733333333  1.0000
  Ge  Ge4       1.0  0.07929709999999998  0.225690425  0.5992627533333333  1.0000
  P   P5        1.0  0.7011666299999993  0.19055576500000007  0.34222153  1.0000
  P   P6        1.0  0.64266968  0.42797798  0.5034242266666666  1.0000
  P   P7        1.0  0.4721792599999998  0.321116685  0.5090422433333334  1.0000
  P   P8        1.0  0.12973550999999997  0.467951385  0.42788733999999995  1.0000
  S   S25       1.0  0.19004633999999992  0.31106537500000014  0.4123792366666666  1.0000
  S   S26       1.0  0.3983849299999996  0.23196518500000002  0.33953844333333333  1.0000
  S   S27       1.0  0.2677850399999999  0.01570757500000002  0.5507935666666667  1.0000
  S   S28       1.0  0.9368693199999993  0.4418679750000001  0.46299629333333325  1.0000
  S   S29       1.0  0.04190212  0.14382945000000008  0.6482123533333333  1.0000
  S   S30       1.0  0.8425375799999997  0.46292078500000017  0.5624345933333335  1.0000
  S   S31       1.0  0.1257973599999999  0.10117876500000003  0.46659409  1.0000
  S   S32       1.0  0.7710598699999996  0.282354535  0.4936359333333333  1.0000
  S   S33       1.0  0.8748817999999998  0.20666806500000004  0.3972447166666666  1.0000
  S   S34       1.0  0.4228327299999997  0.47381565000000003  0.63841943  1.0000
  S   S35       1.0  0.6364306799999998  0.3682357350000001  0.37113718333333334  1.0000
  S   S36       1.0  0.9695562699999991  0.1585360750000001  0.5664206933333333  1.0000
  S   S37       1.0  0.5534440899999997  0.3537261800000001  0.5521322300000001  1.0000
  S   S38       1.0  0.4405997399999999  0.22835925000000004  0.4727088099999999  1.0000
  S   S39       1.0  0.1161249200000001  0.3532916900000001  0.6267183433333332  1.0000
  S   S40       1.0  0.7151229999999992  0.061528295  0.6494229233333333  1.0000
  S   S41       1.0  0.46473422999999936  0.431075545  0.46620812  1.0000
  S   S42       1.0  0.9740280500000001  0.445216415  0.3785033133333333  1.0000
  S   S43       1.0  0.6497229299999996  0.05674579000000003  0.5032439433333333  1.0000
  S   S44       1.0  0.4303096200000002  0.17090142000000008  0.5793640999999999  1.0000
  S   S45       1.0  0.6075637299999999  0.10449618000000001  0.39650390999999996  1.0000
  S   S46       1.0  0.28271013  0.032236870000000015  0.3871425533333333  1.0000
  S   S47       1.0  0.7859617499999992  0.282940775  0.62847058  1.0000
  S   S48       1.0  0.17879452000000007  0.30280614  0.5341815933333333  1.0000
  Li  Li41      1.0  0.27621465999999995  0.3946744800000001  0.69169602  1.0000
  Li  Li42      1.0  0.9095668799999997  0.07481061500000002  0.7172418533333332  1.0000
  Li  Li43      1.0  0.7825962299999996  0.15481803000000008  0.7971054499999999  1.0000
  Li  Li44      1.0  0.09557303999999969  0.272267195  0.8090012766666667  1.0000
  Li  Li45      1.0  0.5189355599999999  0.25611328999999994  0.7401249766666667  1.0000
  Li  Li46      1.0  0.4530066000000001  0.07282070000000003  0.7948594499999999  1.0000
  Li  Li47      1.0  0.26384499999999966  0.14271259500000003  0.8565213266666667  1.0000
  Li  Li48      1.0  0.34524544999999984  0.11554593000000002  0.9821947400000001  1.0000
  Li  Li49      1.0  0.7589846799999999  0.4200622150000001  0.9625133266666666  1.0000
  Li  Li50      1.0  0.9860631800000002  0.29796767000000024  0.6847358866666666  1.0000
  Li  Li51      1.0  0.14627217999999997  0.4145425550000002  0.9050340666666666  1.0000
  Li  Li52      1.0  0.8499941199999997  0.3160679950000001  0.8838788266666666  1.0000
  Li  Li53      1.0  0.4989368299999999  0.01361439500000005  0.9055353399999998  1.0000
  Li  Li54      1.0  0.20830824999999992  0.16989936000000005  0.7386359066666667  1.0000
  Li  Li55      1.0  0.8178415900000001  0.34848216000000004  0.7576076999999999  1.0000
  Li  Li56      1.0  0.7565560899999997  0.1313166300000001  0.8768797699999998  1.0000
  Li  Li57      1.0  0.05470814999999997  0.48423209999999994  0.8434099966666667  1.0000
  Li  Li58      1.0  0.030192760000000145  0.02264528500000005  0.9612900599999998  1.0000
  Li  Li59      1.0  0.6306431299999999  0.1990367750000001  0.9440170133333333  1.0000
  Li  Li60      1.0  0.42557143999999997  0.3440459650000001  0.9613103866666667  1.0000
  Ge  Ge5       1.0  0.5588386100000001  0.0018707299999999995  0.7021664066666666  1.0000
  Ge  Ge6       1.0  0.07929710000000018  0.22569042500000003  0.9325960866666666  1.0000
  P   P9        1.0  0.7011666299999998  0.19055576500000007  0.6755548633333333  1.0000
  P   P10       1.0  0.6426696800000005  0.42797798000000004  0.8367575599999999  1.0000
  P   P11       1.0  0.4721792599999998  0.321116685  0.8423755766666665  1.0000
  P   P12       1.0  0.12973550999999986  0.46795138500000005  0.7612206733333333  1.0000
  S   S49       1.0  0.19004633999999995  0.3110653750000001  0.74571257  1.0000
  S   S50       1.0  0.39838492999999997  0.23196518500000016  0.6728717766666665  1.0000
  S   S51       1.0  0.26778504000000014  0.01570757500000002  0.8841268999999999  1.0000
  S   S52       1.0  0.9368693199999996  0.44186797500000013  0.7963296266666666  1.0000
  S   S53       1.0  0.04190211999999999  0.1438294500000001  0.9815456866666665  1.0000
  S   S54       1.0  0.84253758  0.462920785  0.8957679266666666  1.0000
  S   S55       1.0  0.12579736000000002  0.10117876500000006  0.7999274233333332  1.0000
  S   S56       1.0  0.7710598699999998  0.282354535  0.8269692666666666  1.0000
  S   S57       1.0  0.8748817999999997  0.20666806499999998  0.7305780500000001  1.0000
  S   S58       1.0  0.4228327299999994  0.47381565  0.9717527633333333  1.0000
  S   S59       1.0  0.6364306799999998  0.3682357350000001  0.7044705166666666  1.0000
  S   S60       1.0  0.9695562699999999  0.15853607500000003  0.8997540266666666  1.0000
  S   S61       1.0  0.5534440900000002  0.35372618000000017  0.8854655633333331  1.0000
  S   S62       1.0  0.4405997399999996  0.22835925000000004  0.8060421433333335  1.0000
  S   S63       1.0  0.11612491999999988  0.3532916900000001  0.9600516766666666  1.0000
  S   S64       1.0  0.7151229999999994  0.06152829500000008  0.9827562566666666  1.0000
  S   S65       1.0  0.4647342299999998  0.43107554500000006  0.7995414533333333  1.0000
  S   S66       1.0  0.9740280499999998  0.4452164150000001  0.7118366466666666  1.0000
  S   S67       1.0  0.6497229299999995  0.05674579000000003  0.8365772766666667  1.0000
  S   S68       1.0  0.4303096200000001  0.17090142000000008  0.9126974333333332  1.0000
  S   S69       1.0  0.6075637299999995  0.10449617999999998  0.7298372433333334  1.0000
  S   S70       1.0  0.28271013  0.03223687000000004  0.7204758866666666  1.0000
  S   S71       1.0  0.7859617499999997  0.28294077500000003  0.9618039133333333  1.0000
  S   S72       1.0  0.1787945199999997  0.3028061400000002  0.8675149266666666  1.0000
  Li  Li61      1.0  0.2762146599999998  0.89467448  0.02502935333333333  1.0000
  Li  Li62      1.0  0.9095668799999995  0.5748106150000001  0.05057518666666666  1.0000
  Li  Li63      1.0  0.7825962299999994  0.65481803  0.13043878333333334  1.0000
  Li  Li64      1.0  0.09557303999999983  0.7722671950000001  0.14233461000000003  1.0000
  Li  Li65      1.0  0.5189355599999999  0.7561132900000002  0.07345830999999999  1.0000
  Li  Li66      1.0  0.45300659999999987  0.5728207000000001  0.1281927833333333  1.0000
  Li  Li67      1.0  0.263845  0.6427125950000001  0.18985466  1.0000
  Li  Li68      1.0  0.34524544999999995  0.6155459300000001  0.3155280733333333  1.0000
  Li  Li69      1.0  0.75898468  0.9200622150000002  0.29584666  1.0000
  Li  Li70      1.0  0.9860631799999999  0.7979676700000001  0.018069219999999997  1.0000
  Li  Li71      1.0  0.14627217999999992  0.9145425550000003  0.23836739999999998  1.0000
  Li  Li72      1.0  0.8499941199999995  0.8160679950000003  0.21721215999999996  1.0000
  Li  Li73      1.0  0.49893682999999955  0.5136143950000001  0.23886867333333328  1.0000
  Li  Li74      1.0  0.20830824999999994  0.66989936  0.07196923999999999  1.0000
  Li  Li75      1.0  0.8178415899999999  0.8484821600000002  0.09094103333333331  1.0000
  Li  Li76      1.0  0.7565560899999997  0.6313166300000003  0.2102131033333333  1.0000
  Li  Li77      1.0  0.05470815000000003  0.9842321000000002  0.17674333  1.0000
  Li  Li78      1.0  0.030192759999999843  0.5226452850000001  0.29462339333333337  1.0000
  Li  Li79      1.0  0.6306431299999997  0.6990367750000004  0.27735034666666664  1.0000
  Li  Li80      1.0  0.42557143999999986  0.8440459650000003  0.29464372000000005  1.0000
  Ge  Ge7       1.0  0.5588386100000001  0.50187073  0.03549974  1.0000
  Ge  Ge8       1.0  0.0792971000000002  0.7256904249999999  0.26592941999999997  1.0000
  P   P13       1.0  0.7011666299999996  0.6905557650000002  0.008888196666666667  1.0000
  P   P14       1.0  0.64266968  0.9279779800000001  0.17009089333333333  1.0000
  P   P15       1.0  0.4721792599999998  0.8211166850000002  0.17570891  1.0000
  P   P16       1.0  0.1297355099999998  0.9679513850000001  0.09455400666666666  1.0000
  S   S73       1.0  0.19004634000000004  0.8110653750000001  0.07904590333333332  1.0000
  S   S74       1.0  0.39838492999999975  0.7319651850000002  0.006205109999999999  1.0000
  S   S75       1.0  0.2677850400000001  0.5157075750000001  0.2174602333333333  1.0000
  S   S76       1.0  0.9368693199999998  0.9418679750000001  0.12966296  1.0000
  S   S77       1.0  0.04190211999999985  0.6438294500000002  0.31487901999999995  1.0000
  S   S78       1.0  0.842537579999999  0.962920785  0.22910126000000006  1.0000
  S   S79       1.0  0.12579735999999986  0.6011787650000002  0.13326075666666665  1.0000
  S   S80       1.0  0.7710598699999994  0.7823545350000001  0.1603026  1.0000
  S   S81       1.0  0.8748817999999997  0.7066680650000002  0.06391138333333332  1.0000
  S   S82       1.0  0.42283272999999943  0.9738156500000001  0.3050860966666667  1.0000
  S   S83       1.0  0.6364306799999996  0.8682357350000002  0.03780385  1.0000
  S   S84       1.0  0.9695562699999998  0.6585360750000001  0.23308736000000005  1.0000
  S   S85       1.0  0.5534440899999997  0.8537261800000003  0.21879889666666666  1.0000
  S   S86       1.0  0.4405997399999995  0.7283592500000002  0.13937547666666666  1.0000
  S   S87       1.0  0.11612492000000008  0.85329169  0.29338500999999995  1.0000
  S   S88       1.0  0.7151229999999995  0.5615282949999999  0.31608959  1.0000
  S   S89       1.0  0.46473422999999964  0.9310755450000002  0.13287478666666666  1.0000
  S   S90       1.0  0.97402805  0.945216415  0.045169980000000005  1.0000
  S   S91       1.0  0.64972293  0.5567457899999999  0.16991061  1.0000
  S   S92       1.0  0.4303096200000002  0.6709014200000001  0.24603076666666665  1.0000
  S   S93       1.0  0.6075637299999999  0.6044961800000002  0.06317057666666666  1.0000
  S   S94       1.0  0.28271012999999995  0.53223687  0.05380921999999999  1.0000
  S   S95       1.0  0.7859617499999993  0.782940775  0.29513724666666674  1.0000
  S   S96       1.0  0.17879451999999968  0.8028061400000003  0.20084826  1.0000
  Li  Li81      1.0  0.2762146599999998  0.89467448  0.3583626866666667  1.0000
  Li  Li82      1.0  0.9095668799999997  0.5748106150000001  0.38390852  1.0000
  Li  Li83      1.0  0.7825962299999997  0.6548180300000003  0.4637721166666666  1.0000
  Li  Li84      1.0  0.09557303999999978  0.7722671950000002  0.47566794333333334  1.0000
  Li  Li85      1.0  0.5189355599999999  0.7561132900000002  0.4067916433333333  1.0000
  Li  Li86      1.0  0.4530066000000001  0.5728207000000001  0.46152611666666665  1.0000
  Li  Li87      1.0  0.2638449999999998  0.6427125950000001  0.5231879933333333  1.0000
  Li  Li88      1.0  0.3452454500000002  0.6155459300000001  0.6488614066666666  1.0000
  Li  Li89      1.0  0.7589846799999997  0.9200622150000002  0.6291799933333333  1.0000
  Li  Li90      1.0  0.98606318  0.7979676700000002  0.3514025533333333  1.0000
  Li  Li91      1.0  0.14627217999999992  0.9145425550000005  0.5717007333333333  1.0000
  Li  Li92      1.0  0.8499941199999996  0.8160679950000004  0.5505454933333332  1.0000
  Li  Li93      1.0  0.4989368299999992  0.5136143950000003  0.5722020066666667  1.0000
  Li  Li94      1.0  0.20830825  0.6698993600000002  0.4053025733333333  1.0000
  Li  Li95      1.0  0.8178415899999997  0.8484821600000003  0.4242743666666666  1.0000
  Li  Li96      1.0  0.7565560899999993  0.6313166300000005  0.5435464366666667  1.0000
  Li  Li97      1.0  0.05470815000000014  0.9842321000000004  0.5100766633333332  1.0000
  Li  Li98      1.0  0.030192759999999954  0.5226452850000001  0.6279567266666667  1.0000
  Li  Li99      1.0  0.63064313  0.6990367750000003  0.6106836799999998  1.0000
  Li  Li100     1.0  0.42557143999999986  0.8440459650000004  0.6279770533333333  1.0000
  Ge  Ge9       1.0  0.5588386100000001  0.50187073  0.3688330733333333  1.0000
  Ge  Ge10      1.0  0.07929710000000015  0.725690425  0.5992627533333333  1.0000
  P   P17       1.0  0.7011666299999998  0.6905557650000002  0.34222153  1.0000
  P   P18       1.0  0.6426696800000001  0.92797798  0.5034242266666666  1.0000
  P   P19       1.0  0.4721792599999998  0.8211166850000002  0.5090422433333334  1.0000
  P   P20       1.0  0.1297355099999998  0.9679513850000003  0.42788733999999995  1.0000
  S   S97       1.0  0.19004634000000015  0.8110653750000001  0.4123792366666666  1.0000
  S   S98       1.0  0.39838492999999986  0.7319651850000002  0.33953844333333333  1.0000
  S   S99       1.0  0.2677850400000001  0.5157075750000001  0.5507935666666667  1.0000
  S   S100      1.0  0.9368693199999998  0.9418679750000001  0.46299629333333325  1.0000
  S   S101      1.0  0.04190211999999996  0.6438294500000002  0.6482123533333333  1.0000
  S   S102      1.0  0.84253758  0.9629207849999999  0.5624345933333335  1.0000
  S   S103      1.0  0.12579736000000002  0.6011787650000001  0.46659409  1.0000
  S   S104      1.0  0.7710598699999999  0.7823545350000002  0.4936359333333333  1.0000
  S   S105      1.0  0.8748818000000002  0.7066680650000001  0.3972447166666666  1.0000
  S   S106      1.0  0.42283272999999943  0.9738156500000003  0.63841943  1.0000
  S   S107      1.0  0.6364306799999997  0.8682357350000003  0.37113718333333334  1.0000
  S   S108      1.0  0.9695562699999998  0.6585360750000001  0.5664206933333333  1.0000
  S   S109      1.0  0.5534440899999997  0.8537261800000003  0.5521322300000001  1.0000
  S   S110      1.0  0.44059973999999974  0.7283592500000002  0.4727088099999999  1.0000
  S   S111      1.0  0.11612492000000008  0.85329169  0.6267183433333332  1.0000
  S   S112      1.0  0.7151229999999995  0.561528295  0.6494229233333333  1.0000
  S   S113      1.0  0.46473422999999964  0.9310755450000001  0.46620812  1.0000
  S   S114      1.0  0.9740280499999998  0.945216415  0.3785033133333333  1.0000
  S   S115      1.0  0.6497229299999996  0.55674579  0.5032439433333333  1.0000
  S   S116      1.0  0.4303096200000001  0.6709014200000001  0.5793640999999999  1.0000
  S   S117      1.0  0.6075637299999996  0.6044961800000004  0.39650390999999996  1.0000
  S   S118      1.0  0.28271013  0.5322368700000001  0.3871425533333333  1.0000
  S   S119      1.0  0.7859617499999995  0.7829407750000001  0.62847058  1.0000
  S   S120      1.0  0.1787945199999999  0.8028061400000003  0.5341815933333333  1.0000
  Li  Li101     1.0  0.27621465999999967  0.8946744800000002  0.69169602  1.0000
  Li  Li102     1.0  0.9095668799999997  0.5748106150000001  0.7172418533333332  1.0000
  Li  Li103     1.0  0.7825962299999993  0.6548180299999999  0.7971054499999999  1.0000
  Li  Li104     1.0  0.09557303999999961  0.7722671950000001  0.8090012766666667  1.0000
  Li  Li105     1.0  0.5189355599999997  0.75611329  0.7401249766666667  1.0000
  Li  Li106     1.0  0.45300659999999954  0.5728207000000001  0.7948594499999999  1.0000
  Li  Li107     1.0  0.2638449999999998  0.6427125950000001  0.8565213266666667  1.0000
  Li  Li108     1.0  0.34524544999999984  0.6155459299999999  0.9821947400000001  1.0000
  Li  Li109     1.0  0.75898468  0.9200622150000001  0.9625133266666666  1.0000
  Li  Li110     1.0  0.98606318  0.79796767  0.6847358866666666  1.0000
  Li  Li111     1.0  0.1462721799999997  0.9145425550000003  0.9050340666666666  1.0000
  Li  Li112     1.0  0.8499941199999999  0.8160679950000002  0.8838788266666666  1.0000
  Li  Li113     1.0  0.49893683  0.5136143950000001  0.9055353399999998  1.0000
  Li  Li114     1.0  0.20830824999999983  0.66989936  0.7386359066666667  1.0000
  Li  Li115     1.0  0.8178415899999998  0.8484821600000001  0.7576076999999999  1.0000
  Li  Li116     1.0  0.7565560899999995  0.6313166300000003  0.8768797699999998  1.0000
  Li  Li117     1.0  0.05470814999999947  0.9842321000000004  0.8434099966666667  1.0000
  Li  Li118     1.0  0.03019276000000007  0.5226452850000001  0.9612900599999998  1.0000
  Li  Li119     1.0  0.6306431299999996  0.6990367750000003  0.9440170133333333  1.0000
  Li  Li120     1.0  0.42557143999999963  0.8440459650000005  0.9613103866666667  1.0000
  Ge  Ge11      1.0  0.5588386099999998  0.5018707300000002  0.7021664066666666  1.0000
  Ge  Ge12      1.0  0.07929709999999993  0.725690425  0.9325960866666666  1.0000
  P   P21       1.0  0.7011666299999997  0.6905557650000003  0.6755548633333333  1.0000
  P   P22       1.0  0.6426696799999998  0.9279779800000001  0.8367575599999999  1.0000
  P   P23       1.0  0.4721792599999998  0.8211166849999999  0.8423755766666665  1.0000
  P   P24       1.0  0.12973550999999958  0.9679513850000003  0.7612206733333333  1.0000
  S   S121      1.0  0.19004633999999992  0.8110653750000001  0.74571257  1.0000
  S   S122      1.0  0.3983849299999996  0.7319651850000003  0.6728717766666665  1.0000
  S   S123      1.0  0.26778503999999975  0.5157075750000002  0.8841268999999999  1.0000
  S   S124      1.0  0.9368693199999992  0.9418679750000002  0.7963296266666666  1.0000
  S   S125      1.0  0.04190211999999985  0.6438294500000002  0.9815456866666665  1.0000
  S   S126      1.0  0.8425375799999997  0.962920785  0.8957679266666666  1.0000
  S   S127      1.0  0.12579735999999986  0.6011787650000002  0.7999274233333332  1.0000
  S   S128      1.0  0.7710598699999999  0.7823545350000002  0.8269692666666666  1.0000
  S   S129      1.0  0.8748817999999995  0.7066680650000001  0.7305780500000001  1.0000
  S   S130      1.0  0.42283272999999943  0.9738156500000003  0.9717527633333333  1.0000
  S   S131      1.0  0.6364306799999996  0.8682357350000002  0.7044705166666666  1.0000
  S   S132      1.0  0.96955627  0.6585360750000001  0.8997540266666666  1.0000
  S   S133      1.0  0.5534440900000004  0.8537261800000001  0.8854655633333331  1.0000
  S   S134      1.0  0.44059973999999946  0.7283592500000001  0.8060421433333335  1.0000
  S   S135      1.0  0.11612492000000008  0.85329169  0.9600516766666666  1.0000
  S   S136      1.0  0.715122999999999  0.5615282950000005  0.9827562566666666  1.0000
  S   S137      1.0  0.46473422999999986  0.9310755450000002  0.7995414533333333  1.0000
  S   S138      1.0  0.9740280499999998  0.9452164150000004  0.7118366466666666  1.0000
  S   S139      1.0  0.6497229299999999  0.55674579  0.8365772766666667  1.0000
  S   S140      1.0  0.4303096200000002  0.6709014200000001  0.9126974333333332  1.0000
  S   S141      1.0  0.6075637299999999  0.6044961800000002  0.7298372433333334  1.0000
  S   S142      1.0  0.28271012999999995  0.53223687  0.7204758866666666  1.0000
  S   S143      1.0  0.7859617499999993  0.782940775  0.9618039133333333  1.0000
  S   S144      1.0  0.17879451999999968  0.8028061400000003  0.8675149266666666  1.0000
