data_image0
_chemical_formula_structural       Li20Ge2P4S24
_chemical_formula_sum              "Li20 Ge2 P4 S24"
_cell_length_a       8.696901219517365
_cell_length_b       8.633754812545352
_cell_length_c       13.958868293587102
_cell_angle_alpha    80.5683842090637
_cell_angle_beta     79.32317079498719
_cell_angle_gamma    76.7326003139698

_space_group_name_H-M_alt    "P 1"
_space_group_IT_number       1

loop_
  _space_group_symop_operation_xyz
  'x, y, z'

loop_
  _atom_site_type_symbol
  _atom_site_label
  _atom_site_symmetry_multiplicity
  _atom_site_fract_x
  _atom_site_fract_y
  _atom_site_fract_z
  _atom_site_occupancy
  Li  Li1       1.0  0.3460920750231249  0.7590560441141342  0.07251614945331217  1.0000
  Li  Li2       1.0  0.9163979404262814  0.1583574734289166  0.13681761614796026  1.0000
  Li  Li3       1.0  0.8874717721503714  0.2982717712748815  0.36054907780369944  1.0000
  Li  Li4       1.0  0.16904006532520016  0.5485439369861532  0.4247982622824629  1.0000
  Li  Li5       1.0  0.6480767314486913  0.42906433135137845  0.18739945997006233  1.0000
  Li  Li6       1.0  0.4728269491063929  0.18144247770230246  0.3939413978084116  1.0000
  Li  Li7       1.0  0.2348814723602469  0.30203856455406203  0.587346869047629  1.0000
  Li  Li8       1.0  0.2923632198872876  0.15279747442493183  0.944672240523374  1.0000
  Li  Li9       1.0  0.6182618409240952  0.7865760137191968  0.9206614321044123  1.0000
  Li  Li10      1.0  0.9778641939576587  0.4903209430959584  0.022909113551692183  1.0000
  Li  Li11      1.0  0.17733385144941366  0.7747135437356628  0.6780874910039857  1.0000
  Li  Li12      1.0  0.8546980950611732  0.6838364130967303  0.724682724333578  1.0000
  Li  Li13      1.0  0.43435561134674777  0.04995915289863752  0.7660967055981254  1.0000
  Li  Li14      1.0  0.1790972589040756  0.3605621465046157  0.23962117590471652  1.0000
  Li  Li15      1.0  0.812294115959279  0.6724140998278995  0.22826267424604268  1.0000
  Li  Li16      1.0  0.8731050017965934  0.36888629768968806  0.5411519534414135  1.0000
  Li  Li17      1.0  0.16975435033748604  0.011746975778940572  0.4892450177620208  1.0000
  Li  Li18      1.0  0.07662664089157502  0.9353136956586867  0.9564867235672819  1.0000
  Li  Li19      1.0  0.8029441070411362  0.25710950576879027  0.8153918758770863  1.0000
  Li  Li20      1.0  0.32647006507064497  0.6136748034916144  0.8797524504774219  1.0000
  Ge  Ge1       1.0  0.5532021694932607  0.02025930410673704  0.13152456408008908  1.0000
  Ge  Ge2       1.0  0.09294723173328971  0.4041702695449116  0.8171505028849345  1.0000
  P   P1        1.0  0.5624851529628161  0.39655117164407205  0.013777037945946431  1.0000
  P   P2        1.0  0.7423913896456349  0.9956774563857818  0.5993029695466704  1.0000
  P   P3        1.0  0.4844755002169055  0.6153804617127115  0.4244029479943954  1.0000
  P   P4        1.0  0.18981314967287827  0.9470354003566914  0.29465185517752407  1.0000
  S   S1        1.0  0.16573463176020628  0.7464814846873415  0.2380050922956881  1.0000
  S   S2        1.0  0.3211116982331295  0.4787183100754643  0.06001203933127229  1.0000
  S   S3        1.0  0.34034565927726096  0.9921237684537674  0.6248337028875104  1.0000
  S   S4        1.0  0.9581248221588141  0.8452207103336455  0.5580160498499125  1.0000
  S   S5        1.0  0.9894167292120191  0.23920290257491852  0.9436525220964476  1.0000
  S   S6        1.0  0.7296353911213604  0.01526266030361989  0.7453534510247696  1.0000
  S   S7        1.0  0.12510096177828745  0.28933376284049767  0.43172967050824895  1.0000
  S   S8        1.0  0.7200855929801794  0.6048209324171345  0.42312077628247285  1.0000
  S   S9        1.0  0.9223185710983561  0.4051887259905607  0.19210872011803323  1.0000
  S   S10       1.0  0.3457627411409447  0.8842406292920999  0.9054107928568454  1.0000
  S   S11       1.0  0.6258212997071619  0.7669964053929877  0.10344286260917532  1.0000
  S   S12       1.0  0.9719262741831366  0.4032942212547867  0.6889938887397337  1.0000
  S   S13       1.0  0.5732710796559074  0.8572147343072869  0.5887397786520163  1.0000
  S   S14       1.0  0.44564953196885077  0.4797631492330747  0.32885312733219363  1.0000
  S   S15       1.0  0.02688473262800241  0.6609950223673632  0.8525151429307845  1.0000
  S   S16       1.0  0.5798881559535441  0.15730415093038738  0.9772361978257201  1.0000
  S   S17       1.0  0.40497931634427986  0.8673289585655399  0.36594409977273634  1.0000
  S   S18       1.0  0.9992080324353062  0.8492659136916036  0.13999664366266765  1.0000
  S   S19       1.0  0.6868569492188062  0.20781810399811174  0.5111424633415086  1.0000
  S   S20       1.0  0.3519217765633665  0.339812167094035  0.790841920731966  1.0000
  S   S21       1.0  0.6501894863118257  0.12680666889422926  0.23179745471851795  1.0000
  S   S22       1.0  0.2763654947701314  0.09139522405044985  0.16505978811494415  1.0000
  S   S23       1.0  0.6265316128790334  0.5101968115517487  0.8749423156152115  1.0000
  S   S24       1.0  0.33774274704592244  0.5720721555833654  0.5530657323803184  1.0000
