data_image0
_chemical_formula_structural       Li20Ge2P4S24Li20Ge2P4S24Li20Ge2P4S24Li20Ge2P4S24Li20Ge2P4S24Li20Ge2P4S24Li20Ge2P4S24Li20Ge2P4S24
_chemical_formula_sum              "Li160 Ge16 P32 S192"
_cell_length_a       17.671679697063556
_cell_length_b       16.857161626569933
_cell_length_c       28.613346061174116
_cell_angle_alpha    83.83864440748007
_cell_angle_beta     71.88837360688329
_cell_angle_gamma    76.70240181014681

_space_group_name_H-M_alt    "P 1"
_space_group_IT_number       1

loop_
  _space_group_symop_operation_xyz
  'x, y, z'

loop_
  _atom_site_type_symbol
  _atom_site_label
  _atom_site_symmetry_multiplicity
  _atom_site_fract_x
  _atom_site_fract_y
  _atom_site_fract_z
  _atom_site_occupancy
  Li  Li1       1.0  0.19356506167418397  0.38850092878541936  0.02957803905763623  1.0000
  Li  Li2       1.0  0.42843309083440895  0.10100977885110099  0.07200266240116528  1.0000
  Li  Li3       1.0  0.40941727240967435  0.1697065891609577  0.19800879907985827  1.0000
  Li  Li4       1.0  0.06176911124809778  0.23350260150888003  0.24591948222027382  1.0000
  Li  Li5       1.0  0.3010196218010714  0.24513219468882522  0.10241120803488965  1.0000
  Li  Li6       1.0  0.18970170949891713  0.0741361697599865  0.1942269576829794  1.0000
  Li  Li7       1.0  0.19653606577439334  0.15449029051895025  0.3102597420568144  1.0000
  Li  Li8       1.0  0.1630838453002353  0.08218984766340104  0.467834156275898  1.0000
  Li  Li9       1.0  0.3574816517432279  0.40030151461562247  0.4438132858826078  1.0000
  Li  Li10      1.0  0.4986855483662548  0.24855043770154459  0.019335718603750027  1.0000
  Li  Li11      1.0  0.0609585387938622  0.4191255317244839  0.36216453824298134  1.0000
  Li  Li12      1.0  0.4460669405103151  0.3620465585666968  0.3290588786268223  1.0000
  Li  Li13      1.0  0.28021972883924395  0.019795455890450404  0.3794536838822843  1.0000
  Li  Li14      1.0  0.06435229256505173  0.16884660195676304  0.12729620555946633  1.0000
  Li  Li15      1.0  0.3952520010974376  0.3647210859683693  0.11307549461996202  1.0000
  Li  Li16      1.0  0.5121231261412637  0.06368879693921359  0.30029887826400525  1.0000
  Li  Li17      1.0  0.03961555994555341  0.46892479219319233  0.21178157706815126  1.0000
  Li  Li18      1.0  0.06756099745193568  0.9705965132906473  0.46905286961617115  1.0000
  Li  Li19      1.0  0.4355132570688353  0.1095883026784994  0.4072094628852058  1.0000
  Li  Li20      1.0  0.18971598663145312  0.30831276103893673  0.4341944292558433  1.0000
  Ge  Ge1       1.0  0.2689048903089975  0.021387037897547954  0.05772934671858967  1.0000
  Ge  Ge2       1.0  0.06952730632488954  0.20704702919747986  0.4089253239961395  1.0000
  P   P1        1.0  0.2931795012091896  0.20519802789310748  0.0004721733593853168  1.0000
  P   P2        1.0  0.3183932640919151  0.4528160310326724  0.24956899767692314  1.0000
  P   P3        1.0  0.21216264549354727  0.31622644812131284  0.23392850126816334  1.0000
  P   P4        1.0  0.05285127081324248  0.48386178083839326  0.10571455960608658  1.0000
  S   S1        1.0  0.11081706211687473  0.39031461135080425  0.13818773979904744  1.0000
  S   S2        1.0  0.1702992654053036  0.2520718031055514  0.027154686543539697  1.0000
  S   S3        1.0  0.14454376032047944  0.02491364357531396  0.3341185903948489  1.0000
  S   S4        1.0  0.43043485142449833  0.3853179421243114  0.2429413597998251  1.0000
  S   S5        1.0  0.011716345365356557  0.12413941742679346  0.4699375335118478  1.0000
  S   S6        1.0  0.42525081203464504  0.49073220480851465  0.36635249921631324  1.0000
  S   S7        1.0  0.0413638269947459  0.11385006509774459  0.21411321358377428  1.0000
  S   S8        1.0  0.2878162881338138  0.25275248511855986  0.2712482370945123  1.0000
  S   S9        1.0  0.43833082090880887  0.2203292747336318  0.10815571649444106  1.0000
  S   S10       1.0  0.20875206081736225  0.44284778065616087  0.44727672369433  1.0000
  S   S11       1.0  0.32126316177219855  0.39047401661047454  0.04736587810127758  1.0000
  S   S12       1.0  0.5291380686617794  0.19618948609248105  0.34267577952471306  1.0000
  S   S13       1.0  0.24605164572893612  0.42905923591495765  0.3212999233973713  1.0000
  S   S14       1.0  0.19838385827901148  0.2473753303056145  0.18415193146521835  1.0000
  S   S15       1.0  0.031070187675699405  0.33220777879927543  0.4396896891264694  1.0000
  S   S16       1.0  0.30574715487157006  0.08113866308917288  0.48152464303439413  1.0000
  S   S17       1.0  0.269123238177623  0.4152395208154617  0.19538844175484166  1.0000
  S   S18       1.0  0.49229659796544434  0.4539103105510731  0.06165989948592536  1.0000
  S   S19       1.0  0.3045835067816045  0.07275261326058316  0.23365150987741817  1.0000
  S   S20       1.0  0.2035194665865969  0.1737393702467611  0.3931231578212805  1.0000
  S   S21       1.0  0.2868925802916484  0.08980787937995803  0.11156062389243077  1.0000
  S   S22       1.0  0.1305709524291588  0.06129867292358962  0.06328440535622305  1.0000
  S   S23       1.0  0.3428773926791068  0.25066555206690805  0.43152239399320763  1.0000
  S   S24       1.0  0.09814165613190241  0.37148141819859654  0.2733070585214152  1.0000
  Li  Li21      1.0  0.19356485566009832  0.38850162454324894  0.5295772169265707  1.0000
  Li  Li22      1.0  0.4284341122239308  0.10100835794278613  0.5720024424032939  1.0000
  Li  Li23      1.0  0.40941714526155476  0.16970661536492732  0.6980087679730526  1.0000
  Li  Li24      1.0  0.06176952964066038  0.2335023791385325  0.7459195359765624  1.0000
  Li  Li25      1.0  0.30102000921366423  0.24513175576677543  0.6024113066666721  1.0000
  Li  Li26      1.0  0.1897022987933291  0.07413646183472632  0.6942270045585336  1.0000
  Li  Li27      1.0  0.19653621820756248  0.15449013825844085  0.8102597154492092  1.0000
  Li  Li28      1.0  0.16308413702687294  0.08219003681734961  0.9678341225429464  1.0000
  Li  Li29      1.0  0.3574815567641598  0.4003014606698207  0.9438134072459797  1.0000
  Li  Li30      1.0  0.4986855077389774  0.24855045499818743  0.5193357431532832  1.0000
  Li  Li31      1.0  0.06095859212655979  0.41912559264288973  0.8621645522222483  1.0000
  Li  Li32      1.0  0.4460669636328978  0.36204649539581346  0.8290590209933968  1.0000
  Li  Li33      1.0  0.2802197116001337  0.01979546115471656  0.8794536485602861  1.0000
  Li  Li34      1.0  0.06435229987852269  0.1688464198505499  0.627295885357736  1.0000
  Li  Li35      1.0  0.3952527730461766  0.3647212569659649  0.6130752351075534  1.0000
  Li  Li36      1.0  0.5121231150963677  0.06368881741753117  0.8002989266158655  1.0000
  Li  Li37      1.0  0.039614544715538595  0.46892577257363666  0.711782870519088  1.0000
  Li  Li38      1.0  0.06756135477167467  0.9705966614855607  0.9690520269218926  1.0000
  Li  Li39      1.0  0.4355132384448125  0.10958836590036071  0.9072093737853085  1.0000
  Li  Li40      1.0  0.18971614741784046  0.3083126811880172  0.9341944853449989  1.0000
  Ge  Ge3       1.0  0.2688998976073566  0.021393233087244345  0.5577288262044425  1.0000
  Ge  Ge4       1.0  0.06952855616627483  0.20704737062921005  0.90892452872365  1.0000
  P   P5        1.0  0.2931808543000345  0.2051967682814328  0.500472139659665  1.0000
  P   P6        1.0  0.31838960144499134  0.4528208022352525  0.7495686391622907  1.0000
  P   P7        1.0  0.2121647658724357  0.316225197301108  0.7339275275350015  1.0000
  P   P8        1.0  0.05280923141718683  0.48391140052000214  0.6056824992920593  1.0000
  S   S25       1.0  0.11085139153480561  0.3902651808226791  0.6382077894599348  1.0000
  S   S26       1.0  0.1702983253753292  0.2520723009232692  0.5271550407364977  1.0000
  S   S27       1.0  0.14454328056958934  0.024913974925063483  0.8341186118447866  1.0000
  S   S28       1.0  0.43043803252154605  0.3853160394267642  0.7429412538136426  1.0000
  S   S29       1.0  0.011715883278157093  0.12413832262961338  0.9699382888760133  1.0000
  S   S30       1.0  0.42525082800963054  0.49073216563324074  0.8663524501987239  1.0000
  S   S31       1.0  0.04136406085794935  0.11384916232461172  0.7141129115648055  1.0000
  S   S32       1.0  0.28781606548146166  0.25275275980630835  0.7712482076596034  1.0000
  S   S33       1.0  0.438330663199946  0.22032958181083462  0.6081559775556581  1.0000
  S   S34       1.0  0.20875152996778834  0.4428479119531301  0.947276963514655  1.0000
  S   S35       1.0  0.3212628700292462  0.39047228858562577  0.547366137899031  1.0000
  S   S36       1.0  0.5291380549277206  0.19618949720691978  0.8426759330728614  1.0000
  S   S37       1.0  0.24605207828642778  0.4290587792584714  0.8212999840006896  1.0000
  S   S38       1.0  0.19838346347737346  0.24737596565214498  0.6841520906264685  1.0000
  S   S39       1.0  0.031070033429079044  0.3322078122073875  0.9396899237733735  1.0000
  S   S40       1.0  0.30574718834867703  0.08113850538868847  0.9815243493473749  1.0000
  S   S41       1.0  0.2691229130956827  0.4152392005718455  0.6953883970710462  1.0000
  S   S42       1.0  0.4923022962159257  0.4539113601338257  0.5616653552604777  1.0000
  S   S43       1.0  0.3045847310710725  0.07274719302360748  0.7336524632234681  1.0000
  S   S44       1.0  0.2035187626526833  0.17373950288747644  0.8931233052219604  1.0000
  S   S45       1.0  0.28689209925289416  0.08980782685935464  0.6115609114256273  1.0000
  S   S46       1.0  0.13057122286552664  0.06129207719149443  0.5632891852600665  1.0000
  S   S47       1.0  0.34287734882465193  0.2506654054359647  0.9315225225291439  1.0000
  S   S48       1.0  0.09813970503771521  0.37148257747695185  0.7733070597661404  1.0000
  Li  Li41      1.0  0.1935653041125226  0.8885004397263604  0.029578569662645535  1.0000
  Li  Li42      1.0  0.42843342940974616  0.6010093289561314  0.07200259630602056  1.0000
  Li  Li43      1.0  0.409417240774368  0.6697066217113079  0.19800881297479525  1.0000
  Li  Li44      1.0  0.061768841975581114  0.7335028543504087  0.2459194779840328  1.0000
  Li  Li45      1.0  0.30101947215487035  0.745132403142794  0.10241114115326697  1.0000
  Li  Li46      1.0  0.1897018384096317  0.5741363455718332  0.19422693969475802  1.0000
  Li  Li47      1.0  0.19653609446917167  0.654490321750946  0.31025971201482316  1.0000
  Li  Li48      1.0  0.16308381722288035  0.5821898411610473  0.4678341555143667  1.0000
  Li  Li49      1.0  0.35748164160750284  0.9003015073323775  0.44381330999122987  1.0000
  Li  Li50      1.0  0.49868549537152873  0.7485503392745955  0.019335723499750216  1.0000
  Li  Li51      1.0  0.0609585219674227  0.9191254835535786  0.3621644879903702  1.0000
  Li  Li52      1.0  0.4460668993092744  0.8620465906666569  0.32905880897607  1.0000
  Li  Li53      1.0  0.28021971876692026  0.5197954710537938  0.3794536833176395  1.0000
  Li  Li54      1.0  0.06435241967758551  0.6688468664342613  0.12729609769747322  1.0000
  Li  Li55      1.0  0.39525154046014344  0.864720919357939  0.11307565383228319  1.0000
  Li  Li56      1.0  0.5121231212132313  0.5636888321600564  0.3002988771903642  1.0000
  Li  Li57      1.0  0.039616259220551855  0.9689240105126354  0.21178063808320552  1.0000
  Li  Li58      1.0  0.06756096237153209  0.4705964979012479  0.46905294934555886  1.0000
  Li  Li59      1.0  0.4355132481608063  0.6095883152738106  0.40720946438198985  1.0000
  Li  Li60      1.0  0.18971600818147372  0.8083127296601919  0.434194431831909  1.0000
  Ge  Ge5       1.0  0.2689025120149562  0.5213901823202293  0.0577292435978417  1.0000
  Ge  Ge6       1.0  0.06952728038765524  0.7070468279083305  0.40892527486433256  1.0000
  P   P9        1.0  0.2931783920385111  0.7051982717254932  0.00047250667928232053  1.0000
  P   P10       1.0  0.31839593951957035  0.9528124926434945  0.2495692350752278  1.0000
  P   P11       1.0  0.21216176612628  0.8162269551338901  0.23392929717588984  1.0000
  P   P12       1.0  0.05288018825634108  0.9838276368271809  0.10573674608075101  1.0000
  S   S49       1.0  0.110793383524749  0.8903486660860047  0.13817392062384978  1.0000
  S   S50       1.0  0.1703000984428165  0.752071203008833  0.027154408420853808  1.0000
  S   S51       1.0  0.14454359404989142  0.5249137677588511  0.33411858464341726  1.0000
  S   S52       1.0  0.43043254813531445  0.8853193579481746  0.24294142694812276  1.0000
  S   S53       1.0  0.011716381695177688  0.6241395191528902  0.469937492115997  1.0000
  S   S54       1.0  0.4252508020925302  0.9907322573067837  0.3663525356809379  1.0000
  S   S55       1.0  0.04136405137112213  0.6138493278287219  0.2141131027076471  1.0000
  S   S56       1.0  0.2878161551040586  0.7527526548197923  0.2712481079940007  1.0000
  S   S57       1.0  0.43833084919720755  0.7203294603035018  0.10815568724710353  1.0000
  S   S58       1.0  0.20875199151768084  0.9428478154657263  0.4472767508348882  1.0000
  S   S59       1.0  0.3212632130775245  0.8904755044069327  0.04736571978962907  1.0000
  S   S60       1.0  0.5291380847313742  0.6961894705476893  0.34267582337897345  1.0000
  S   S61       1.0  0.24605146160435423  0.9290594142830285  0.321299859373393  1.0000
  S   S62       1.0  0.19838409387772965  0.7473749240994579  0.1841517924601599  1.0000
  S   S63       1.0  0.031070154135587846  0.832207903491253  0.43968973334290323  1.0000
  S   S64       1.0  0.30574718304165976  0.5811385865202828  0.48152467723011133  1.0000
  S   S65       1.0  0.269123442162494  0.9152398282816614  0.1953884815446371  1.0000
  S   S66       1.0  0.49229346417247327  0.9539096787872124  0.061656836761773214  1.0000
  S   S67       1.0  0.3045838594883026  0.5727508112210269  0.23365178048008908  1.0000
  S   S68       1.0  0.20351946849668667  0.6737393959421625  0.39312316654279766  1.0000
  S   S69       1.0  0.28689254012567605  0.5898075321647211  0.11156066199721822  1.0000
  S   S70       1.0  0.13057109973645123  0.5612956820753742  0.06328652608867626  1.0000
  S   S71       1.0  0.3428774166576212  0.7506655355504059  0.43152238355006445  1.0000
  S   S72       1.0  0.09814275546527775  0.8714807341054623  0.2733071572662762  1.0000
  Li  Li61      1.0  0.19356489069347818  0.8885015376433191  0.529577347048498  1.0000
  Li  Li62      1.0  0.42843405794760236  0.6010084453146621  0.5720024678551583  1.0000
  Li  Li63      1.0  0.40941716959442015  0.669706619477186  0.6980087542409052  1.0000
  Li  Li64      1.0  0.06176946724462298  0.7335024318125779  0.7459195355894073  1.0000
  Li  Li65      1.0  0.30101995967051837  0.7451318232719429  0.602411283579387  1.0000
  Li  Li66      1.0  0.18970229647646147  0.5741365125070153  0.6942269940573328  1.0000
  Li  Li67      1.0  0.19653618510755708  0.6544901723844342  0.8102597403829426  1.0000
  Li  Li68      1.0  0.16308400146649518  0.5821899757240238  0.9678341600917723  1.0000
  Li  Li69      1.0  0.3574815212886373  0.900301418575452  0.9438135181678897  1.0000
  Li  Li70      1.0  0.4986854940610174  0.7485504895444366  0.5193357417337178  1.0000
  Li  Li71      1.0  0.060958598206441915  0.9191255995586852  0.8621645073077104  1.0000
  Li  Li72      1.0  0.4460669704739788  0.8620464574015458  0.8290590596485485  1.0000
  Li  Li73      1.0  0.2802197152711326  0.5197954589008253  0.8794536627873337  1.0000
  Li  Li74      1.0  0.06435230340296363  0.6688464904945675  0.6272958789269948  1.0000
  Li  Li75      1.0  0.3952527463931284  0.8647213144086164  0.6130751995157167  1.0000
  Li  Li76      1.0  0.5121231249194982  0.5636888042729544  0.8002989223460563  1.0000
  Li  Li77      1.0  0.03961470520755289  0.9689256194030912  0.7117826768247207  1.0000
  Li  Li78      1.0  0.06756121656039887  0.47059660846072665  0.9690524198800617  1.0000
  Li  Li79      1.0  0.43551323477071247  0.6095883388875972  0.9072094105790801  1.0000
  Li  Li80      1.0  0.189716191912408  0.8083126695030753  0.9341945126465894  1.0000
  Ge  Ge7       1.0  0.26889931904878384  0.5213938542615427  0.5577287042782497  1.0000
  Ge  Ge8       1.0  0.06952844034879554  0.7070465613136536  0.9089248595080658  1.0000
  P   P13       1.0  0.2931806372711902  0.7051968922058112  0.5004721708801004  1.0000
  P   P14       1.0  0.318388030536002  0.952822600046266  0.7495682905005797  1.0000
  P   P15       1.0  0.21216442825212806  0.8162256119022293  0.7339275144595541  1.0000
  P   P16       1.0  0.05281540420225518  0.9839041271895711  0.6056871837350729  1.0000
  S   S73       1.0  0.11084636757654238  0.8902724178050605  0.6382048560418561  1.0000
  S   S74       1.0  0.17029849253506868  0.7520721639101189  0.5271549878236435  1.0000
  S   S75       1.0  0.1445433071669415  0.5249139615868781  0.8341186145712932  1.0000
  S   S76       1.0  0.43043933038667587  0.8853152199141999  0.7429412662359514  1.0000
  S   S77       1.0  0.011716103290500981  0.6241389414957893  0.9699379140008636  1.0000
  S   S78       1.0  0.42525082298766836  0.9907321461972776  0.8663524543481388  1.0000
  S   S79       1.0  0.041364113395727986  0.6138489997228849  0.7141128816012738  1.0000
  S   S80       1.0  0.28781623550587365  0.752752561657738  0.771248303209717  1.0000
  S   S81       1.0  0.4383307032390456  0.7203294933272527  0.6081559934674946  1.0000
  S   S82       1.0  0.20875119666528255  0.9428480286972567  0.9472770773283413  1.0000
  S   S83       1.0  0.3212628306066904  0.890472591225697  0.5473660787918869  1.0000
  S   S84       1.0  0.5291380198849571  0.6961895673091881  0.8426758600656288  1.0000
  S   S85       1.0  0.24605211110312356  0.9290586704957319  0.8213000739548141  1.0000
  S   S86       1.0  0.1983835060858178  0.7473758315805314  0.6841520715276231  1.0000
  S   S87       1.0  0.03106991606234591  0.8322082763235693  0.9396899782959315  1.0000
  S   S88       1.0  0.3057472144164866  0.5811384507711632  0.9815244232113725  1.0000
  S   S89       1.0  0.2691230010534266  0.9152391762646107  0.6953885302002462  1.0000
  S   S90       1.0  0.49230293380372214  0.9539114869368401  0.561665966538247  1.0000
  S   S91       1.0  0.3045845348479727  0.5727481275190289  0.7336522673008261  1.0000
  S   S92       1.0  0.20351880312352869  0.6737395741460732  0.8931232590363682  1.0000
  S   S93       1.0  0.2868922498563779  0.5898077626541541  0.6115609475660361  1.0000
  S   S94       1.0  0.13057132057900653  0.5612914212817999  0.5632896283312758  1.0000
  S   S95       1.0  0.3428775274800325  0.7506655787654333  0.9315222559117842  1.0000
  S   S96       1.0  0.09813993031371661  0.8714824358397572  0.7733070892112902  1.0000
  Li  Li81      1.0  0.6935649869549414  0.3885010603832942  0.029577892035349662  1.0000
  Li  Li82      1.0  0.9284326303201266  0.10101054033712573  0.07200275454640155  1.0000
  Li  Li83      1.0  0.9094173914846516  0.16970669139682348  0.19800881878534393  1.0000
  Li  Li84      1.0  0.5617691953965492  0.23350258540921792  0.2459195232684046  1.0000
  Li  Li85      1.0  0.8010195748099084  0.24513222759762104  0.10241120038598284  1.0000
  Li  Li86      1.0  0.6897016472612284  0.07413635977902923  0.1942269325992322  1.0000
  Li  Li87      1.0  0.6965359816539551  0.1544904075536419  0.31025983347402253  1.0000
  Li  Li88      1.0  0.6630838497733083  0.08218985405310147  0.4678341636339382  1.0000
  Li  Li89      1.0  0.8574816603000652  0.40030150068162323  0.44381332363489534  1.0000
  Li  Li90      1.0  0.9986856421670164  0.24855041607161107  0.019335685627271244  1.0000
  Li  Li91      1.0  0.5609585688834482  0.41912553864092233  0.36216455063434777  1.0000
  Li  Li92      1.0  0.9460669257612057  0.36204657921963806  0.32905878185926174  1.0000
  Li  Li93      1.0  0.7802197878491096  0.019795449300264716  0.3794536919949452  1.0000
  Li  Li94      1.0  0.5643521993372032  0.1688466303543396  0.12729606271062163  1.0000
  Li  Li95      1.0  0.8952519285460563  0.36472105249729636  0.11307556673809775  1.0000
  Li  Li96      1.0  0.012123140635913465  0.06368879261739237  0.3002988163048496  1.0000
  Li  Li97      1.0  0.5396154199492738  0.4689249933318374  0.21178178527210867  1.0000
  Li  Li98      1.0  0.5675610202780245  0.970596521161386  0.4690528564780221  1.0000
  Li  Li99      1.0  0.9355132907393235  0.10958828049972402  0.40720942983087727  1.0000
  Li  Li100     1.0  0.6897160292609813  0.30831272771731727  0.43419443600513336  1.0000
  Ge  Ge9       1.0  0.7689022813600931  0.021389419856290295  0.05772850262814697  1.0000
  Ge  Ge10      1.0  0.5695275645440082  0.20704684488490196  0.40892538571952175  1.0000
  P   P17       1.0  0.7931796587007902  0.2051980483907252  0.00047220716738262825  1.0000
  P   P18       1.0  0.8183987647732385  0.45280969967411555  0.24957008760893074  1.0000
  P   P19       1.0  0.7121639281433525  0.3162252636114958  0.23392901057457477  1.0000
  P   P20       1.0  0.5528436455088571  0.48387070579906477  0.10570879205165697  1.0000
  S   S97       1.0  0.6108231915030244  0.3903057520498155  0.13819136337209503  1.0000
  S   S98       1.0  0.6702992341495965  0.25207180357955755  0.027154722076136378  1.0000
  S   S99       1.0  0.6445436918837508  0.024913588975549607  0.33411873112510854  1.0000
  S   S100      1.0  0.9304303033873127  0.3853208193802028  0.24294138421933784  1.0000
  S   S101      1.0  0.5117163308531498  0.12413944038600178  0.46993753668546456  1.0000
  S   S102      1.0  0.9252507372104344  0.49073226169057427  0.366352561438351  1.0000
  S   S103      1.0  0.5413640931257214  0.11384965051069676  0.21411310540296072  1.0000
  S   S104      1.0  0.7878155437442717  0.25275308425281595  0.2712478127373452  1.0000
  S   S105      1.0  0.9383306943022095  0.22032914463354675  0.10815559468023929  1.0000
  S   S106      1.0  0.7087519183737496  0.44284783262418653  0.4472767729488099  1.0000
  S   S107      1.0  0.8212633189806674  0.39047357895462015  0.04736600391255189  1.0000
  S   S108      1.0  0.029138170906848337  0.19618941179961605  0.3426758650551188  1.0000
  S   S109      1.0  0.7460516642409039  0.4290594819976944  0.3212996323808684  1.0000
  S   S110      1.0  0.6983838394994308  0.24737515956976072  0.18415180833839354  1.0000
  S   S111      1.0  0.5310701460276063  0.3322078717760003  0.4396897277691156  1.0000
  S   S112      1.0  0.8057471693398982  0.08113863148657141  0.4815246126297229  1.0000
  S   S113      1.0  0.7691229680549779  0.4152396610706677  0.19538809079209404  1.0000
  S   S114      1.0  0.9922948347390156  0.453909981156592  0.06165821112755295  1.0000
  S   S115      1.0  0.8045820747990092  0.07275923226696063  0.23365022242196423  1.0000
  S   S116      1.0  0.703519288646018  0.17373942289456523  0.3931231636294021  1.0000
  S   S117      1.0  0.7868932987368886  0.08980792155083404  0.11156101132874392  1.0000
  S   S118      1.0  0.630571418623799  0.06129629317237373  0.06328606583333268  1.0000
  S   S119      1.0  0.8428774119772217  0.2506655417415571  0.43152237391475307  1.0000
  S   S120      1.0  0.5981410947773269  0.37148175047041887  0.27330707121630005  1.0000
  Li  Li101     1.0  0.6935649547687662  0.3885014657547165  0.529577436169312  1.0000
  Li  Li102     1.0  0.9284341274761684  0.10100833154364663  0.5720024447017793  1.0000
  Li  Li103     1.0  0.9094171489503112  0.16970659368880875  0.6980087346878999  1.0000
  Li  Li104     1.0  0.5617694474460598  0.23350245947820877  0.745919525967746  1.0000
  Li  Li105     1.0  0.8010199512315193  0.24513186312726218  0.6024112799202235  1.0000
  Li  Li106     1.0  0.6897022720301836  0.07413647284689664  0.6942269902532345  1.0000
  Li  Li107     1.0  0.6965361752034295  0.154490132882367  0.8102597194363339  1.0000
  Li  Li108     1.0  0.6630840221542843  0.08218997612493933  0.9678341255945532  1.0000
  Li  Li109     1.0  0.8574815508705605  0.40030147666764687  0.9438133737447337  1.0000
  Li  Li110     1.0  0.9986854526586327  0.24855055121213396  0.5193357427353704  1.0000
  Li  Li111     1.0  0.5609585767861701  0.4191255695095033  0.8621645426176886  1.0000
  Li  Li112     1.0  0.9460669768255178  0.36204647106390037  0.8290590989213129  1.0000
  Li  Li113     1.0  0.7802197054558311  0.019795476197010317  0.8794536480400077  1.0000
  Li  Li114     1.0  0.5643523356950881  0.1688464808468828  0.6272959095836343  1.0000
  Li  Li115     1.0  0.8952528122557672  0.3647214211580678  0.6130751202400717  1.0000
  Li  Li116     1.0  0.012123120852661984  0.06368879810066794  0.8002989318293517  1.0000
  Li  Li117     1.0  0.5396147895962001  0.4689255188188847  0.7117825783517375  1.0000
  Li  Li118     1.0  0.5675612333642179  0.9705966185229598  0.969052316560062  1.0000
  Li  Li119     1.0  0.9355131505051645  0.10958836662805958  0.9072093512709025  1.0000
  Li  Li120     1.0  0.6897161161075231  0.30831269831469366  0.9341944804409565  1.0000
  Ge  Ge11      1.0  0.7689000301160868  0.02139317359907584  0.5577289122993534  1.0000
  Ge  Ge12      1.0  0.5695281392291893  0.20704717784272733  0.9089248164811186  1.0000
  P   P21       1.0  0.7931805234972018  0.20519691453069236  0.5004721710301592  1.0000
  P   P22       1.0  0.818385843145149  0.45282491921430296  0.7495678699015274  1.0000
  P   P23       1.0  0.7121636447573031  0.3162263172938392  0.7339272233890131  1.0000
  P   P24       1.0  0.5528192451891659  0.4838996889565456  0.6056900478816671  1.0000
  S   S121      1.0  0.6108432872217581  0.39027682653636947  0.6382030631914627  1.0000
  S   S122      1.0  0.6702985532824202  0.2520721387987006  0.5271549388006779  1.0000
  S   S123      1.0  0.6445432837398833  0.02491398674413294  0.8341185969383066  1.0000
  S   S124      1.0  0.9304412176560375  0.3853140729163173  0.7429412458154324  1.0000
  S   S125      1.0  0.5117160805884344  0.1241387315412959  0.969938006686107  1.0000
  S   S126      1.0  0.9252509025605088  0.49073209863089945  0.8663524090606008  1.0000
  S   S127      1.0  0.5413640321665734  0.11384912130065349  0.714112923764415  1.0000
  S   S128      1.0  0.7878167257725248  0.25275214127797224  0.7712485610511571  1.0000
  S   S129      1.0  0.9383307560275491  0.2203294527229133  0.6081560397638079  1.0000
  S   S130      1.0  0.708751654925272  0.442847895510578  0.9472769217223823  1.0000
  S   S131      1.0  0.8212626961825708  0.39047285267961923  0.547366014560002  1.0000
  S   S132      1.0  0.02913803705089335  0.19618952229149958  0.8426759642378792  1.0000
  S   S133      1.0  0.7460520661984146  0.42905861217955016  0.821300185876571  1.0000
  S   S134      1.0  0.6983835409626777  0.24737584944690544  0.6841521326053575  1.0000
  S   S135      1.0  0.5310700906239206  0.332207842766229  0.9396898519043098  1.0000
  S   S136      1.0  0.8057472099967401  0.08113822303636081  0.9815246171330184  1.0000
  S   S137      1.0  0.769123133382264  0.4152391031062439  0.6953886874263957  1.0000
  S   S138      1.0  0.9923046143563978  0.45391182253706436  0.5616675796925997  1.0000
  S   S139      1.0  0.8045847709424612  0.07274709608827873  0.7336524614003247  1.0000
  S   S140      1.0  0.7035190023610667  0.17373945136955862  0.893123264067219  1.0000
  S   S141      1.0  0.7868920690352624  0.0898077472520399  0.6115608578623646  1.0000
  S   S142      1.0  0.6305711988542759  0.06129216349167491  0.5632891124802725  1.0000
  S   S143      1.0  0.8428773766340879  0.2506653824750592  0.9315225201688903  1.0000
  S   S144      1.0  0.5981402313104611  0.37148224163909016  0.7733070587514087  1.0000
  Li  Li121     1.0  0.6935650367561785  0.8885008579134461  0.029578130499972776  1.0000
  Li  Li122     1.0  0.9284332653005912  0.6010095474764751  0.0720026048645039  1.0000
  Li  Li123     1.0  0.909417281729559  0.6697067153948959  0.19800889781307834  1.0000
  Li  Li124     1.0  0.5617690756027756  0.7335026630919987  0.24591952346919121  1.0000
  Li  Li125     1.0  0.8010195725093903  0.7451322002620969  0.10241117885318315  1.0000
  Li  Li126     1.0  0.6897018581753246  0.5741363729309656  0.1942269380093667  1.0000
  Li  Li127     1.0  0.6965361059451615  0.6544903777220956  0.31025974929668676  1.0000
  Li  Li128     1.0  0.6630838793154131  0.5821898506459903  0.4678341548805269  1.0000
  Li  Li129     1.0  0.8574816769777782  0.9003015085434479  0.443813289037615  1.0000
  Li  Li130     1.0  0.9986856383291148  0.7485501510600927  0.019335658044253516  1.0000
  Li  Li131     1.0  0.560958562253647  0.9191255300660477  0.362164549200855  1.0000
  Li  Li132     1.0  0.9460668558772689  0.8620466482636922  0.32905857035090974  1.0000
  Li  Li133     1.0  0.7802197655494436  0.5197954692392875  0.37945367658021284  1.0000
  Li  Li134     1.0  0.5643522964465476  0.6688467459371977  0.12729601832834386  1.0000
  Li  Li135     1.0  0.8952513936605315  0.8647205262238357  0.11307594198513196  1.0000
  Li  Li136     1.0  0.012123110996626218  0.5636888677265768  0.30029883142560887  1.0000
  Li  Li137     1.0  0.5396157470173115  0.9689246345284976  0.2117813332780952  1.0000
  Li  Li138     1.0  0.5675610351592278  0.4705965299679704  0.46905281773847485  1.0000
  Li  Li139     1.0  0.9355133097840597  0.6095883078250564  0.40720945330481395  1.0000
  Li  Li140     1.0  0.6897160270828561  0.808312720717196  0.4341944386107116  1.0000
  Ge  Ge13      1.0  0.7689015891328554  0.5213908788785016  0.057728820661776  1.0000
  Ge  Ge14      1.0  0.5695276394508012  0.7070468843474139  0.4089253030624994  1.0000
  P   P25       1.0  0.793179131831619  0.7051978910464837  0.0004724179306990662  1.0000
  P   P26       1.0  0.8184077220007924  0.9527991339824142  0.2495716442473269  1.0000
  P   P27       1.0  0.712164895340074  0.8162237792350157  0.23393033212372485  1.0000
  P   P28       1.0  0.5528573228711637  0.9838543506576649  0.10571938438777195  1.0000
  S   S145      1.0  0.6108118934828187  0.8903220380971993  0.13818477504134588  1.0000
  S   S146      1.0  0.6702996150452175  0.7520715700462683  0.027154601970104088  1.0000
  S   S147      1.0  0.6445435974059286  0.5249137116508218  0.33411864590343016  1.0000
  S   S148      1.0  0.9304227312855412  0.885325507733867  0.24294147464417015  1.0000
  S   S149      1.0  0.5117162968743573  0.6241393640332216  0.4699375779533526  1.0000
  S   S150      1.0  0.9252506631678146  0.9907323965543385  0.3663526824452327  1.0000
  S   S151      1.0  0.5413641512917216  0.6138493461686897  0.21411306430794644  1.0000
  S   S152      1.0  0.7878141982064106  0.7527543758699804  0.27124708534245584  1.0000
  S   S153      1.0  0.9383306160337945  0.7203296520234196  0.10815552141008887  1.0000
  S   S154      1.0  0.70875195725698  0.9428478133141446  0.447276765067952  1.0000
  S   S155      1.0  0.8212636005121814  0.8904742469483631  0.04736600771723197  1.0000
  S   S156      1.0  0.029138219308415758  0.6961893512186346  0.342675975287028  1.0000
  S   S157      1.0  0.7460515521170777  0.9290599218162625  0.3212992305388927  1.0000
  S   S158      1.0  0.6983839194910273  0.7473750884711916  0.1841516476234961  1.0000
  S   S159      1.0  0.5310701476277805  0.8322078592044642  0.43968972624149194  1.0000
  S   S160      1.0  0.8057471446753302  0.5811387070840653  0.4815245934846856  1.0000
  S   S161      1.0  0.7691228635279214  0.9152401501587387  0.19538765439146363  1.0000
  S   S162      1.0  0.9922882049469907  0.953908628146762  0.061651692639044714  1.0000
  S   S163      1.0  0.8045832130277158  0.5727539352585551  0.2336511913817997  1.0000
  S   S164      1.0  0.7035192303105543  0.6737394153069972  0.39312320336225964  1.0000
  S   S165      1.0  0.7868927679288105  0.5898077303324188  0.11156088166194289  1.0000
  S   S166      1.0  0.6305712993303824  0.561294886849624  0.06328709387204438  1.0000
  S   S167      1.0  0.842877399081833  0.7506655258120225  0.4315224220364692  1.0000
  S   S168      1.0  0.5981412512054226  0.8714816957128977  0.2733071709440525  1.0000
  Li  Li141     1.0  0.6935649282381399  0.8885014949480425  0.5295773694288957  1.0000
  Li  Li142     1.0  0.9284342692640499  0.6010081091420675  0.572002413192789  1.0000
  Li  Li143     1.0  0.9094170962678493  0.6697066097487038  0.6980087636423566  1.0000
  Li  Li144     1.0  0.5617694693907533  0.7335024178894523  0.7459195324392491  1.0000
  Li  Li145     1.0  0.8010199792981765  0.7451317946008715  0.6024112893166171  1.0000
  Li  Li146     1.0  0.6897022995742789  0.5741364327174059  0.694226993639554  1.0000
  Li  Li147     1.0  0.6965362141708954  0.6544901391298281  0.8102597084290776  1.0000
  Li  Li148     1.0  0.663083961480976  0.5821899542964429  0.9678341465125622  1.0000
  Li  Li149     1.0  0.8574815201644413  0.9003014827415696  0.9438133909043598  1.0000
  Li  Li150     1.0  0.9986854762236548  0.7485504815289417  0.5193357367931142  1.0000
  Li  Li151     1.0  0.5609585815175551  0.9191255710071278  0.8621645527082383  1.0000
  Li  Li152     1.0  0.946066983122346  0.8620464676676739  0.8290590506318279  1.0000
  Li  Li153     1.0  0.7802196886403042  0.5197954789285939  0.8794536655031836  1.0000
  Li  Li154     1.0  0.5643523350514537  0.6688464493873326  0.6272959112945079  1.0000
  Li  Li155     1.0  0.895252775673233  0.8647213031210088  0.6130751945194153  1.0000
  Li  Li156     1.0  0.012123124603965474  0.5636888057279775  0.8002989527998966  1.0000
  Li  Li157     1.0  0.5396147236481007  0.9689256190783488  0.7117826495253414  1.0000
  Li  Li158     1.0  0.5675611813044222  0.4705965861626733  0.96905250664364  1.0000
  Li  Li159     1.0  0.9355131984267324  0.6095883528097802  0.9072094130706441  1.0000
  Li  Li160     1.0  0.6897161141313367  0.8083126763646888  0.9341944846851242  1.0000
  Ge  Ge15      1.0  0.7689004009088843  0.5213927935185463  0.5577290103611234  1.0000
  Ge  Ge16      1.0  0.5695281915666296  0.7070467872435339  0.908924992410954  1.0000
  P   P29       1.0  0.7931806399544902  0.7051968701323738  0.5004721244526353  1.0000
  P   P30       1.0  0.8183876737871109  0.9528228961303361  0.7495682376095171  1.0000
  P   P31       1.0  0.7121645753203625  0.8162254870935535  0.7339275709552994  1.0000
  P   P32       1.0  0.552816503920664  0.9839028733642061  0.6056879886581997  1.0000
  S   S169      1.0  0.6108454979226856  0.8902736413803098  0.6382043530320544  1.0000
  S   S170      1.0  0.670298468975604  0.7520722020344408  0.5271549908985723  1.0000
  S   S171      1.0  0.6445433255374137  0.5249139927606628  0.8341185637873699  1.0000
  S   S172      1.0  0.9304396454348586  0.8853150337008019  0.7429412611778997  1.0000
  S   S173      1.0  0.5117161367554008  0.6241390152991784  0.9699378345314132  1.0000
  S   S174      1.0  0.9252508731165355  0.9907321472777507  0.8663524433198505  1.0000
  S   S175      1.0  0.5413640092072305  0.6138492107118386  0.7141129206001381  1.0000
  S   S176      1.0  0.7878161069193467  0.7527527103447054  0.7712482340504859  1.0000
  S   S177      1.0  0.9383307186337887  0.720329581738555  0.6081560297237977  1.0000
  S   S178      1.0  0.7087515018103461  0.9428479278726374  0.9472770009700786  1.0000
  S   S179      1.0  0.8212627967565852  0.8904726476578357  0.5473660646975811  1.0000
  S   S180      1.0  0.029138015027555086  0.6961895972767908  0.842675905568364  1.0000
  S   S181      1.0  0.7460521001852493  0.9290586538931668  0.821300102898687  1.0000
  S   S182      1.0  0.6983834781497652  0.7473758763607702  0.6841520771794657  1.0000
  S   S183      1.0  0.5310700395343816  0.8322080733523464  0.9396898696739763  1.0000
  S   S184      1.0  0.8057472154731308  0.5811383871908441  0.9815245669151046  1.0000
  S   S185      1.0  0.7691230480508322  0.9152391883366516  0.6953885359501013  1.0000
  S   S186      1.0  0.9923031822375046  0.9539115414620115  0.5616662281134274  1.0000
  S   S187      1.0  0.8045849920977612  0.5727461470244166  0.7336526413135632  1.0000
  S   S188      1.0  0.7035189566536015  0.6737395085122015  0.8931232457399498  1.0000
  S   S189      1.0  0.7868919219436856  0.5898078052943356  0.611560843881107  1.0000
  S   S190      1.0  0.6305711215550377  0.5612924476094926  0.5632889251309378  1.0000
  S   S191      1.0  0.8428774889051247  0.7506655561217477  0.9315223212908279  1.0000
  S   S192      1.0  0.5981398965659014  0.8714824347287935  0.773307102013852  1.0000
