data_image0
_chemical_formula_structural       Li20Ge2P4S24
_chemical_formula_sum              "Li20 Ge2 P4 S24"
_cell_length_a       8.6969033711682
_cell_length_b       8.633590677561894
_cell_length_c       13.958981846840647
_cell_angle_alpha    80.57014718194604
_cell_angle_beta     79.3236621398793
_cell_angle_gamma    76.73305882902805

_space_group_name_H-M_alt    "P 1"
_space_group_IT_number       1

loop_
  _space_group_symop_operation_xyz
  'x, y, z'

loop_
  _atom_site_type_symbol
  _atom_site_label
  _atom_site_symmetry_multiplicity
  _atom_site_fract_x
  _atom_site_fract_y
  _atom_site_fract_z
  _atom_site_occupancy
  Li  Li1       1.0  0.3460829635380357  0.7590620684531262  0.0725104193070785  1.0000
  Li  Li2       1.0  0.9164020189584158  0.1583548445223932  0.1368117469140519  1.0000
  Li  Li3       1.0  0.8874620805158928  0.29827858237945515  0.3605484844970605  1.0000
  Li  Li4       1.0  0.1690358851059493  0.548550561919618  0.4248022118511328  1.0000
  Li  Li5       1.0  0.6480728060327356  0.42906718369555275  0.18740349320325447  1.0000
  Li  Li6       1.0  0.4728554484268118  0.18142199066590955  0.3939434057586498  1.0000
  Li  Li7       1.0  0.23487486691104345  0.3020424599633393  0.587335182164018  1.0000
  Li  Li8       1.0  0.2923639710203624  0.1527983257266906  0.9446751375037437  1.0000
  Li  Li9       1.0  0.6182673341463683  0.7865713247945033  0.9206641180677648  1.0000
  Li  Li10      1.0  0.9778572749191623  0.4903282887611977  0.02291214909756294  1.0000
  Li  Li11      1.0  0.17733792639728452  0.7747162883039607  0.6780885093582443  1.0000
  Li  Li12      1.0  0.8547033468190022  0.6838411071336316  0.7246813354657613  1.0000
  Li  Li13      1.0  0.4343581591985454  0.049967902522328446  0.7660964967821441  1.0000
  Li  Li14      1.0  0.1790901852119034  0.36056566638940396  0.23962748846315002  1.0000
  Li  Li15      1.0  0.8122960915295712  0.6724224758770806  0.22825992045309193  1.0000
  Li  Li16      1.0  0.8730961787920033  0.36889626590588487  0.5411528546032311  1.0000
  Li  Li17      1.0  0.16974785410399815  0.011751765845137374  0.4892454692181882  1.0000
  Li  Li18      1.0  0.07663253103665367  0.9353011667755563  0.956469621856626  1.0000
  Li  Li19      1.0  0.8029516042020972  0.2571080771607352  0.8153910234289359  1.0000
  Li  Li20      1.0  0.32647582239973794  0.6136628336854204  0.8797503275833064  1.0000
  Ge  Ge1       1.0  0.5532031404571521  0.020255187300283476  0.13152947190842668  1.0000
  Ge  Ge2       1.0  0.09294142109196428  0.40417532566174097  0.8171545148420459  1.0000
  P   P1        1.0  0.5624832362408161  0.3965469970574885  0.013782722681413463  1.0000
  P   P2        1.0  0.7423808245617521  0.995701468162543  0.5992881914740018  1.0000
  P   P3        1.0  0.4844622876751588  0.6153826192707568  0.4244088611297978  1.0000
  P   P4        1.0  0.18980813442285335  0.9470388863091801  0.2946505929210304  1.0000
  S   S1        1.0  0.16573021964584272  0.7464810375718975  0.23800136333836017  1.0000
  S   S2        1.0  0.32111397274323594  0.4787150195057653  0.06001230638381539  1.0000
  S   S3        1.0  0.34034176625548385  0.9921340081641066  0.6248341077958741  1.0000
  S   S4        1.0  0.9581270788131944  0.8452141146575026  0.5580145055006484  1.0000
  S   S5        1.0  0.9894209412332311  0.2392004479908845  0.943649520539885  1.0000
  S   S6        1.0  0.7296362414872537  0.015264886288556712  0.7453542008203661  1.0000
  S   S7        1.0  0.12508670499403957  0.2893409794281807  0.4317305721433591  1.0000
  S   S8        1.0  0.7200893966106874  0.6048266623140511  0.4231187840954026  1.0000
  S   S9        1.0  0.9223167868526314  0.4051895087622411  0.1921089058167288  1.0000
  S   S10       1.0  0.34577252472873643  0.8842385340213305  0.9054042387578642  1.0000
  S   S11       1.0  0.6258160136471717  0.7669831660475706  0.1034441176655372  1.0000
  S   S12       1.0  0.9719340383316144  0.40329099097953663  0.6889963962065129  1.0000
  S   S13       1.0  0.5732654965892705  0.8572153054604641  0.5887361639406427  1.0000
  S   S14       1.0  0.44564540294546223  0.4797517041558898  0.32885716343126514  1.0000
  S   S15       1.0  0.02687621398947299  0.6610057964889609  0.8525182787332573  1.0000
  S   S16       1.0  0.5798926758954263  0.15729250069524525  0.9772404323927044  1.0000
  S   S17       1.0  0.40497025885622906  0.8673303222129471  0.3659469686569271  1.0000
  S   S18       1.0  0.9992205237416889  0.8492600743157149  0.13998400641258626  1.0000
  S   S19       1.0  0.6868616800809985  0.2077967216387501  0.5111516480218651  1.0000
  S   S20       1.0  0.3519270646761838  0.3398239959165553  0.7908532579432412  1.0000
  S   S21       1.0  0.6502004068666872  0.1267950676661973  0.2317967011860313  1.0000
  S   S22       1.0  0.2763674179091843  0.09139627063730356  0.16506238106434012  1.0000
  S   S23       1.0  0.626538730408041  0.5101879954574722  0.8749481679765552  1.0000
  S   S24       1.0  0.33774863224459156  0.5720722170568483  0.5530664649285207  1.0000
