data_image0
_chemical_formula_structural       Li20Ge2P4S24Li20Ge2P4S24Li20Ge2P4S24Li20Ge2P4S24Li20Ge2P4S24Li20Ge2P4S24Li20Ge2P4S24Li20Ge2P4S24
_chemical_formula_sum              "Li160 Ge16 P32 S192"
_cell_length_a       17.66826127741126
_cell_length_b       16.859505209754232
_cell_length_c       28.610245345079537
_cell_angle_alpha    83.82873368250715
_cell_angle_beta     71.91140935697668
_cell_angle_gamma    76.6869849450425

_space_group_name_H-M_alt    "P 1"
_space_group_IT_number       1

loop_
  _space_group_symop_operation_xyz
  'x, y, z'

loop_
  _atom_site_type_symbol
  _atom_site_label
  _atom_site_symmetry_multiplicity
  _atom_site_fract_x
  _atom_site_fract_y
  _atom_site_fract_z
  _atom_site_occupancy
  Li  Li1       1.0  0.1935475858817228  0.38852277446789485  0.029561705780135693  1.0000
  Li  Li2       1.0  0.42841126969945953  0.10101954303295393  0.07198992584772576  1.0000
  Li  Li3       1.0  0.4094202949358765  0.1696837857643801  0.19799248264529357  1.0000
  Li  Li4       1.0  0.061725172928297524  0.23352596591750444  0.24591041620635962  1.0000
  Li  Li5       1.0  0.3009700257114392  0.24514491884480125  0.10241612010797986  1.0000
  Li  Li6       1.0  0.18971840025600947  0.07410298867141692  0.19423711868232044  1.0000
  Li  Li7       1.0  0.19654429061591014  0.15449820983334983  0.3102520928760799  1.0000
  Li  Li8       1.0  0.16307625295049286  0.08217610438966597  0.46781391124642585  1.0000
  Li  Li9       1.0  0.35750255271073816  0.40029140718903533  0.4438121826590608  1.0000
  Li  Li10      1.0  0.498661438739178  0.24854561880888165  0.019329723303816094  1.0000
  Li  Li11      1.0  0.0609981112039719  0.419163554276602  0.36216483620589796  1.0000
  Li  Li12      1.0  0.4461223715668964  0.36199739055836144  0.3290869949277465  1.0000
  Li  Li13      1.0  0.28018441137239025  0.01980179875607077  0.37943493032024955  1.0000
  Li  Li14      1.0  0.06436654494710385  0.16878905952637918  0.12729859591571782  1.0000
  Li  Li15      1.0  0.3952868230038378  0.3646976128841818  0.1130772527347989  1.0000
  Li  Li16      1.0  0.5120872357632008  0.0637568325160863  0.30031031145479253  1.0000
  Li  Li17      1.0  0.03963134303775247  0.4689316911158944  0.2118090240044233  1.0000
  Li  Li18      1.0  0.06751680027621973  0.9706409193438965  0.46904498611743434  1.0000
  Li  Li19      1.0  0.43546541905166886  0.10962488808315504  0.4071897680526742  1.0000
  Li  Li20      1.0  0.18966863727116556  0.3083188174427107  0.43421118881561077  1.0000
  Ge  Ge1       1.0  0.26889739327886764  0.021391867875199214  0.05773739161659315  1.0000
  Ge  Ge2       1.0  0.06947625270095527  0.20707747426054673  0.4089155916746654  1.0000
  P   P1        1.0  0.29318763721221336  0.20518288767882556  0.0004875756076493253  1.0000
  P   P2        1.0  0.31842932900155513  0.45278521880167233  0.24956578824712672  1.0000
  P   P3        1.0  0.21221138975105766  0.316198387361697  0.233934239823966  1.0000
  P   P4        1.0  0.05281828057047225  0.48393083004960735  0.1056731844860982  1.0000
  S   S1        1.0  0.11086337668263284  0.390321051845956  0.1382320275942824  1.0000
  S   S2        1.0  0.17029888197810295  0.2520907613161839  0.027179800867087534  1.0000
  S   S3        1.0  0.14461141117224102  0.024894830414634993  0.3341154898720947  1.0000
  S   S4        1.0  0.4305085323272068  0.38527712846188056  0.2429492902314762  1.0000
  S   S5        1.0  0.011700238103653119  0.12416229736670183  0.46992076669579047  1.0000
  S   S6        1.0  0.4252507453143343  0.49076075446534906  0.3663376572076751  1.0000
  S   S7        1.0  0.04138272674140368  0.11383815729485738  0.21411478712613477  1.0000
  S   S8        1.0  0.28791788047239886  0.25268388929080665  0.27124928649087365  1.0000
  S   S9        1.0  0.43832475264344245  0.22031583376289873  0.10814391805980493  1.0000
  S   S10       1.0  0.20873214054106737  0.4428518236861045  0.44725683006882727  1.0000
  S   S11       1.0  0.32125506723453867  0.3904788806250979  0.04737727225417306  1.0000
  S   S12       1.0  0.5290363134911794  0.19627203832472842  0.34266247527763516  1.0000
  S   S13       1.0  0.2461063924811837  0.4290070345306462  0.3212904433000192  1.0000
  S   S14       1.0  0.19837514594500316  0.24737572593010984  0.18416637548581868  1.0000
  S   S15       1.0  0.031014862141663192  0.33221811483609137  0.4396858722735595  1.0000
  S   S16       1.0  0.30573786962824234  0.08114892424025051  0.48153755511234925  1.0000
  S   S17       1.0  0.26915057783401697  0.4152050694581166  0.19538444309546585  1.0000
  S   S18       1.0  0.492305378327078  0.453910622460301  0.061646961286570524  1.0000
  S   S19       1.0  0.30460917822851113  0.0727057378463651  0.23365954938405464  1.0000
  S   S20       1.0  0.20348364506278044  0.17376212780165207  0.3931273795106608  1.0000
  S   S21       1.0  0.28689135520238734  0.08977966551576881  0.11158002219395147  1.0000
  S   S22       1.0  0.13055916117262883  0.061303657128567474  0.06326900090683901  1.0000
  S   S23       1.0  0.3428252053123593  0.250674359451808  0.43153975857643195  1.0000
  S   S24       1.0  0.09820560705229328  0.37146950469895307  0.273322935657969  1.0000
  Li  Li21      1.0  0.1935474715767932  0.3885228820963758  0.5295617510340337  1.0000
  Li  Li22      1.0  0.42841126918884487  0.10101948759223747  0.5719899192114721  1.0000
  Li  Li23      1.0  0.40942032020074365  0.16968375295466115  0.6979924670499434  1.0000
  Li  Li24      1.0  0.06172517245833003  0.23352598892315005  0.7459104020607035  1.0000
  Li  Li25      1.0  0.3009700441557536  0.24514493579024332  0.6024161076691006  1.0000
  Li  Li26      1.0  0.18971838757190268  0.0741029932868432  0.6942371076510239  1.0000
  Li  Li27      1.0  0.196544273898062  0.15449821050617973  0.8102520977046054  1.0000
  Li  Li28      1.0  0.16307626575516992  0.08217610896503226  0.9678139023658565  1.0000
  Li  Li29      1.0  0.35750256363220295  0.40029141242235755  0.9438121683982122  1.0000
  Li  Li30      1.0  0.49866144182354816  0.24854562914677977  0.5193297377478817  1.0000
  Li  Li31      1.0  0.06099810442154186  0.4191635483539613  0.8621648428858223  1.0000
  Li  Li32      1.0  0.44612237937255844  0.3619973909831488  0.8290869930273205  1.0000
  Li  Li33      1.0  0.28018441185673565  0.019801798559496046  0.8794349235757583  1.0000
  Li  Li34      1.0  0.06436656241257713  0.16878907071089633  0.627298558268005  1.0000
  Li  Li35      1.0  0.3952868985588458  0.364697631423526  0.6130772045936859  1.0000
  Li  Li36      1.0  0.5120872465987453  0.0637568196145782  0.8003103002064863  1.0000
  Li  Li37      1.0  0.039631416398914474  0.4689316419411227  0.7118090096834678  1.0000
  Li  Li38      1.0  0.06751679956248416  0.9706409198123079  0.9690449562863839  1.0000
  Li  Li39      1.0  0.43546541988861853  0.10962489385951212  0.9071897637491669  1.0000
  Li  Li40      1.0  0.18966865172676947  0.3083188095409574  0.9342111909577606  1.0000
  Ge  Ge3       1.0  0.2688973577616524  0.02139189044520634  0.5577373592770589  1.0000
  Ge  Ge4       1.0  0.06947626621389225  0.20707746973034225  0.9089155892030452  1.0000
  P   P5        1.0  0.29318765559055004  0.20518288559593684  0.500487548333071  1.0000
  P   P6        1.0  0.31842954366650156  0.4527849833040018  0.7495658382990343  1.0000
  P   P7        1.0  0.21221143870069892  0.31619834411498227  0.7339342542620724  1.0000
  P   P8        1.0  0.05281776341458504  0.4839313584925477  0.6056728279924065  1.0000
  S   S25       1.0  0.110863797160578  0.39032046209739907  0.6382323342814212  1.0000
  S   S26       1.0  0.17029888692485867  0.2520907619863204  0.5271797937169374  1.0000
  S   S27       1.0  0.14461141483859782  0.024894816124175056  0.8341155085591676  1.0000
  S   S28       1.0  0.4305083426891907  0.3852772342682586  0.7429492947464275  1.0000
  S   S29       1.0  0.01170022413391528  0.1241622893076327  0.9699207732011028  1.0000
  S   S30       1.0  0.42525073298199256  0.4907607501598289  0.8663376775522106  1.0000
  S   S31       1.0  0.04138273576509423  0.11383815335192964  0.7141147596821579  1.0000
  S   S32       1.0  0.287917842432088  0.25268391115470434  0.7712492595434567  1.0000
  S   S33       1.0  0.43832475083081573  0.2203158044437071  0.6081439070496617  1.0000
  S   S34       1.0  0.20873213296415707  0.4428518280162536  0.9472568013043275  1.0000
  S   S35       1.0  0.32125510312872935  0.39047886781692254  0.5473772439814323  1.0000
  S   S36       1.0  0.5290363028499943  0.19627204752802083  0.8426624822781684  1.0000
  S   S37       1.0  0.24610638656505224  0.42900702750118475  0.8212904393219067  1.0000
  S   S38       1.0  0.19837511133635868  0.2473757683206084  0.6841663480338661  1.0000
  S   S39       1.0  0.031014852349207134  0.33221812431243986  0.9396858855990785  1.0000
  S   S40       1.0  0.305737879525319  0.08114895646621598  0.9815375331188457  1.0000
  S   S41       1.0  0.26915053893565766  0.41520509660670524  0.6953844358371849  1.0000
  S   S42       1.0  0.4923050595544405  0.4539107329626062  0.5616468349124993  1.0000
  S   S43       1.0  0.30460913043330956  0.07270584302164151  0.733659539423998  1.0000
  S   S44       1.0  0.20348364210198122  0.1737621248766353  0.8931273796510288  1.0000
  S   S45       1.0  0.28689136233714896  0.08977965225221791  0.6115800257109526  1.0000
  S   S46       1.0  0.13055914828891207  0.06130370583869936  0.5632690142076897  1.0000
  S   S47       1.0  0.3428252039975064  0.250674373989798  0.9315397631126796  1.0000
  S   S48       1.0  0.09820556830312646  0.37146953812398625  0.7733229280663115  1.0000
  Li  Li41      1.0  0.19354758436207392  0.8885227807157384  0.029561700628442416  1.0000
  Li  Li42      1.0  0.4284112644699112  0.6010195458966167  0.07198993119652937  1.0000
  Li  Li43      1.0  0.40942029297333615  0.6696837939005317  0.19799248288605292  1.0000
  Li  Li44      1.0  0.06172517552754961  0.7335259679479513  0.2459104133983666  1.0000
  Li  Li45      1.0  0.3009700274297231  0.7451449295851463  0.10241611594249654  1.0000
  Li  Li46      1.0  0.18971840274234983  0.5741029920287769  0.1942371159657605  1.0000
  Li  Li47      1.0  0.19654428516211866  0.6544982112688273  0.3102520951504177  1.0000
  Li  Li48      1.0  0.16307625082034954  0.5821760999141763  0.46781391648512655  1.0000
  Li  Li49      1.0  0.35750255359729927  0.9002914031440621  0.4438121807967715  1.0000
  Li  Li50      1.0  0.49866144436025844  0.7485456168051129  0.01932972349383958  1.0000
  Li  Li51      1.0  0.06099811712212052  0.9191635481295919  0.36216483453317905  1.0000
  Li  Li52      1.0  0.44612237446626923  0.8619973820992746  0.32908699622734255  1.0000
  Li  Li53      1.0  0.2801844124918197  0.5198017946451468  0.37943493394228267  1.0000
  Li  Li54      1.0  0.0643665417235069  0.6687890711464024  0.1272985944336898  1.0000
  Li  Li55      1.0  0.39528682829184386  0.8646976126225923  0.11307724871164175  1.0000
  Li  Li56      1.0  0.5120872408645137  0.5637568345762336  0.3003103123337014  1.0000
  Li  Li57      1.0  0.03963134953287377  0.9689316899483105  0.21180901839585897  1.0000
  Li  Li58      1.0  0.06751680982746526  0.47064091590746526  0.4690449896167929  1.0000
  Li  Li59      1.0  0.4354654197007075  0.6096248855137512  0.40718977086054725  1.0000
  Li  Li60      1.0  0.18966864499291836  0.8083188140065733  0.4342111885397754  1.0000
  Ge  Ge5       1.0  0.2688973930336059  0.5213918602753773  0.057737394256703344  1.0000
  Ge  Ge6       1.0  0.06947624663495873  0.7070774615701841  0.40891559786339354  1.0000
  P   P9        1.0  0.29318763838185186  0.705182883186348  0.00048757199188847214  1.0000
  P   P10       1.0  0.31842932719992856  0.9527852176679881  0.2495657915013436  1.0000
  P   P11       1.0  0.21221138209822873  0.8161983900291193  0.23393423592020424  1.0000
  P   P12       1.0  0.05281826928438956  0.9839308279782893  0.1056731778846576  1.0000
  S   S49       1.0  0.11086337467749194  0.8903210367768906  0.1382320258227389  1.0000
  S   S50       1.0  0.17029887662504886  0.752090766483755  0.027179797673055575  1.0000
  S   S51       1.0  0.14461140446135826  0.5248948405071961  0.3341154833161222  1.0000
  S   S52       1.0  0.43050853835264624  0.8852771196889904  0.24294929477077765  1.0000
  S   S53       1.0  0.01170024149878396  0.6241622965915588  0.46992076369510255  1.0000
  S   S54       1.0  0.42525074302172605  0.9907607571746815  0.3663376572421398  1.0000
  S   S55       1.0  0.04138272206994817  0.6138381662080695  0.21411478335186296  1.0000
  S   S56       1.0  0.2879178805730013  0.7526838915979536  0.27124928654830155  1.0000
  S   S57       1.0  0.43832475740111815  0.720315833151663  0.10814391730508853  1.0000
  S   S58       1.0  0.20873213460752824  0.9428518288249037  0.4472568222672452  1.0000
  S   S59       1.0  0.32125507061859043  0.8904788728167631  0.047377268823943726  1.0000
  S   S60       1.0  0.5290363148280259  0.6962720434684578  0.34266247642639813  1.0000
  S   S61       1.0  0.24610639436705062  0.9290070220795789  0.3212904414158506  1.0000
  S   S62       1.0  0.19837514901308873  0.7473757277422085  0.18416637288279628  1.0000
  S   S63       1.0  0.031014862747140975  0.8322181118044945  0.4396858767512072  1.0000
  S   S64       1.0  0.30573786613398374  0.581148921769389  0.4815375643921028  1.0000
  S   S65       1.0  0.26915057579861656  0.9152050667616458  0.19538444351346612  1.0000
  S   S66       1.0  0.49230538296733667  0.9539106218388229  0.061646955105490335  1.0000
  S   S67       1.0  0.30460918078640753  0.5727057377371273  0.2336595472494507  1.0000
  S   S68       1.0  0.20348365300556226  0.6737621190951477  0.39312737979588896  1.0000
  S   S69       1.0  0.2868913513364954  0.5897796765126253  0.11158002163146864  1.0000
  S   S70       1.0  0.13055915399558535  0.5613036620806586  0.0632690038469551  1.0000
  S   S71       1.0  0.34282521617081807  0.750674370417957  0.4315397528905439  1.0000
  S   S72       1.0  0.09820561818573219  0.8714695020935274  0.27332293259539003  1.0000
  Li  Li61      1.0  0.19354749803042812  0.8885228585026789  0.5295617386388166  1.0000
  Li  Li62      1.0  0.4284112729399262  0.6010194614310289  0.5719899225179094  1.0000
  Li  Li63      1.0  0.40942032781907806  0.6696837402372036  0.6979924662902441  1.0000
  Li  Li64      1.0  0.061725177330977016  0.7335259778079171  0.7459104101022042  1.0000
  Li  Li65      1.0  0.3009700482101576  0.7451449212787925  0.6024161110839771  1.0000
  Li  Li66      1.0  0.1897183827657144  0.5741029930676149  0.6942371170214475  1.0000
  Li  Li67      1.0  0.19654428373186955  0.6544982131080898  0.8102520975522608  1.0000
  Li  Li68      1.0  0.1630762584617358  0.5821761138369451  0.9678139042182201  1.0000
  Li  Li69      1.0  0.35750256596797814  0.9002914105794715  0.9438121616305395  1.0000
  Li  Li70      1.0  0.4986614501490918  0.7485456145484841  0.5193297400149259  1.0000
  Li  Li71      1.0  0.06099810304781739  0.919163540470358  0.8621648396118363  1.0000
  Li  Li72      1.0  0.4461223693061368  0.8619974144992082  0.8290869780465828  1.0000
  Li  Li73      1.0  0.2801844150031776  0.519801796519395  0.8794349287910536  1.0000
  Li  Li74      1.0  0.0643665720616379  0.6687890543309681  0.6272985464730758  1.0000
  Li  Li75      1.0  0.3952868795853287  0.8646976282723338  0.6130772089686201  1.0000
  Li  Li76      1.0  0.5120872284609237  0.5637568033027374  0.8003102956326861  1.0000
  Li  Li77      1.0  0.03963140246232355  0.9689316497889573  0.7118090135514699  1.0000
  Li  Li78      1.0  0.06751679262143939  0.470640923571992  0.9690449680954158  1.0000
  Li  Li79      1.0  0.4354654210361214  0.6096248871879977  0.9071897632523541  1.0000
  Li  Li80      1.0  0.18966865364820104  0.8083188118945456  0.9342111873002908  1.0000
  Ge  Ge7       1.0  0.2688973517328043  0.5213918919554394  0.5577373678439592  1.0000
  Ge  Ge8       1.0  0.06947626583820121  0.7070774739155169  0.9089155864625089  1.0000
  P   P13       1.0  0.29318765250666046  0.70518287864856  0.5004875547725086  1.0000
  P   P14       1.0  0.3184295164693629  0.9527850181366029  0.7495658257421011  1.0000
  P   P15       1.0  0.21221142729470677  0.8161983510298202  0.733934250764543  1.0000
  P   P16       1.0  0.05281783314666491  0.9839312875100743  0.6056728745780251  1.0000
  S   S73       1.0  0.11086373210727746  0.8903205500318623  0.6382322805731602  1.0000
  S   S74       1.0  0.17029888726737313  0.7520907627919201  0.5271797919427259  1.0000
  S   S75       1.0  0.14461138912856747  0.5248948333591501  0.8341155005528708  1.0000
  S   S76       1.0  0.4305083673602707  0.8852772288419105  0.742949281694305  1.0000
  S   S77       1.0  0.011700223697592556  0.6241622922578144  0.9699207740953272  1.0000
  S   S78       1.0  0.42525073173035055  0.9907607623536153  0.8663376684171193  1.0000
  S   S79       1.0  0.0413827387674493  0.6138381424092338  0.7141147551308771  1.0000
  S   S80       1.0  0.28791785673004217  0.7526839121605258  0.7712492638404125  1.0000
  S   S81       1.0  0.4383247593396961  0.7203158018396464  0.6081439042317166  1.0000
  S   S82       1.0  0.2087321419584756  0.9428518284943257  0.9472567969494611  1.0000
  S   S83       1.0  0.3212550946269035  0.8904788684646017  0.547377248115876  1.0000
  S   S84       1.0  0.5290363108064595  0.6962720286310359  0.8426624823089066  1.0000
  S   S85       1.0  0.24610638739732207  0.9290070226904819  0.8212904380213346  1.0000
  S   S86       1.0  0.19837511729914922  0.7473757514457054  0.6841663623461134  1.0000
  S   S87       1.0  0.03101485407181012  0.8322181175342348  0.9396858792795826  1.0000
  S   S88       1.0  0.3057378768012014  0.5811489588425149  0.9815375251107162  1.0000
  S   S89       1.0  0.26915053909820674  0.9152050895508819  0.6953844324156531  1.0000
  S   S90       1.0  0.4923051213244688  0.9539107104969601  0.5616468517107226  1.0000
  S   S91       1.0  0.3046091340973358  0.5727058569819394  0.7336595368561085  1.0000
  S   S92       1.0  0.20348364078157324  0.6737621241827912  0.8931273810150939  1.0000
  S   S93       1.0  0.28689136435914825  0.5897796379614182  0.6115800234812321  1.0000
  S   S94       1.0  0.13055915764171655  0.5613037140870357  0.5632690084210313  1.0000
  S   S95       1.0  0.3428252069088262  0.7506743718725593  0.9315397585155928  1.0000
  S   S96       1.0  0.09820557774992415  0.8714695258338052  0.7733229309821411  1.0000
  Li  Li81      1.0  0.6935475906572454  0.3885227764057084  0.029561711520858857  1.0000
  Li  Li82      1.0  0.9284112729007357  0.1010195324695164  0.07198992602892645  1.0000
  Li  Li83      1.0  0.9094202849717582  0.1696837886429044  0.19799248732309202  1.0000
  Li  Li84      1.0  0.5617251756379712  0.2335259649220244  0.24591041229191013  1.0000
  Li  Li85      1.0  0.8009700233348725  0.2451449208292279  0.10241612325829172  1.0000
  Li  Li86      1.0  0.6897183978863116  0.0741029882915299  0.1942371181967402  1.0000
  Li  Li87      1.0  0.6965442832643459  0.15449821242759804  0.31025209809818816  1.0000
  Li  Li88      1.0  0.6630762641760488  0.08217610597770149  0.4678139143072343  1.0000
  Li  Li89      1.0  0.8575025561270371  0.4002914013485042  0.4438121908124846  1.0000
  Li  Li90      1.0  0.9986614394512747  0.24854561722120214  0.019329723039897207  1.0000
  Li  Li91      1.0  0.5609981120013394  0.4191635453180501  0.36216483310049685  1.0000
  Li  Li92      1.0  0.9461223690421781  0.36199739303315676  0.32908699496626703  1.0000
  Li  Li93      1.0  0.7801844220571569  0.01980180073335203  0.379434930831156  1.0000
  Li  Li94      1.0  0.5643665474132412  0.16878907282124625  0.127298595014412  1.0000
  Li  Li95      1.0  0.8952868242654416  0.36469761473414364  0.11307724944710457  1.0000
  Li  Li96      1.0  0.012087242192484693  0.0637568295778146  0.3003103173245845  1.0000
  Li  Li97      1.0  0.5396313536648311  0.46893168390812423  0.21180900937179792  1.0000
  Li  Li98      1.0  0.5675168198243853  0.9706409257871035  0.4690449693893411  1.0000
  Li  Li99      1.0  0.9354654227116053  0.10962488938104165  0.40718976831021486  1.0000
  Li  Li100     1.0  0.6896686459785634  0.30831880881635526  0.4342111899462309  1.0000
  Ge  Ge9       1.0  0.7688974262256579  0.021391830625371394  0.0577374025793291  1.0000
  Ge  Ge10      1.0  0.5694762815236281  0.20707746212471914  0.40891557156248826  1.0000
  P   P17       1.0  0.7931876272726756  0.20518289742442117  0.0004875728851636328  1.0000
  P   P18       1.0  0.8184292396186846  0.45278531182591736  0.24956576633089983  1.0000
  P   P19       1.0  0.712211366860959  0.3161984031702871  0.2339342326149131  1.0000
  P   P20       1.0  0.5528185337235574  0.4839305287605102  0.10567337359571378  1.0000
  S   S97       1.0  0.6108631720462574  0.3903213409188154  0.1382319029097092  1.0000
  S   S98       1.0  0.6702988913681418  0.2520907546123565  0.027179799681925448  1.0000
  S   S99       1.0  0.6446114095063317  0.024894825855780563  0.3341154923286908  1.0000
  S   S100      1.0  0.9305086161476412  0.3852770691285911  0.2429492888818038  1.0000
  S   S101      1.0  0.5117002285282671  0.12416227200308791  0.46992078423621786  1.0000
  S   S102      1.0  0.9252507397238314  0.4907607641217456  0.366337650953797  1.0000
  S   S103      1.0  0.5413827152285208  0.1138381683739459  0.21411478632251574  1.0000
  S   S104      1.0  0.7879178899131121  0.25268387733375486  0.27124929888115445  1.0000
  S   S105      1.0  0.9383247591041994  0.22031582618907558  0.10814392411841788  1.0000
  S   S106      1.0  0.7087321268619267  0.44285181958472974  0.44725683494241725  1.0000
  S   S107      1.0  0.8212550707533611  0.3904788894852262  0.04737726402803387  1.0000
  S   S108      1.0  0.029036301957691357  0.19627204577057625  0.34266246580636367  1.0000
  S   S109      1.0  0.7461064022719249  0.4290070097888983  0.32129044981034427  1.0000
  S   S110      1.0  0.6983751486637725  0.2473757244618796  0.18416638075086778  1.0000
  S   S111      1.0  0.5310148568956123  0.33221812194882466  0.4396858876500402  1.0000
  S   S112      1.0  0.8057378659831785  0.08114893674870306  0.4815375464390003  1.0000
  S   S113      1.0  0.7691505757490595  0.4152050630908765  0.19538445073985675  1.0000
  S   S114      1.0  0.9923054447739256  0.45391062548802047  0.061647018196455385  1.0000
  S   S115      1.0  0.8046091866209643  0.07270569242058594  0.23365955939636776  1.0000
  S   S116      1.0  0.7034836372094164  0.173762129808689  0.3931273835674226  1.0000
  S   S117      1.0  0.7868913470122956  0.0897796667267152  0.11158002326184122  1.0000
  S   S118      1.0  0.6305591532397617  0.061303691732442864  0.06326898156204867  1.0000
  S   S119      1.0  0.8428252085838107  0.2506743549766694  0.4315397555049334  1.0000
  S   S120      1.0  0.5982056135155654  0.37146950465142997  0.2733229349116908  1.0000
  Li  Li101     1.0  0.6935474809872324  0.38852287183181683  0.5295617869510313  1.0000
  Li  Li102     1.0  0.9284112867274962  0.10101946048750936  0.5719899196194483  1.0000
  Li  Li103     1.0  0.9094203069172561  0.16968375345815548  0.6979924646241792  1.0000
  Li  Li104     1.0  0.5617251580332658  0.2335260118730924  0.7459103938786467  1.0000
  Li  Li105     1.0  0.8009700349777991  0.24514495098018818  0.6024161033040811  1.0000
  Li  Li106     1.0  0.6897183828185267  0.07410299063900297  0.6942371048436384  1.0000
  Li  Li107     1.0  0.6965442674879998  0.154498214924639  0.8102520940117947  1.0000
  Li  Li108     1.0  0.6630762607712644  0.082176111547644  0.9678139049858853  1.0000
  Li  Li109     1.0  0.8575025551499441  0.40029140824633536  0.9438121689996478  1.0000
  Li  Li110     1.0  0.9986614171215229  0.24854564021491368  0.5193297426264614  1.0000
  Li  Li111     1.0  0.5609981030995048  0.4191635538063988  0.8621648443616617  1.0000
  Li  Li112     1.0  0.9461223601326242  0.3619973968724608  0.8290869951697657  1.0000
  Li  Li113     1.0  0.7801844040350886  0.01980180691530379  0.8794349260681822  1.0000
  Li  Li114     1.0  0.5643665822278466  0.1687890732698817  0.6272985558254844  1.0000
  Li  Li115     1.0  0.8952868983153076  0.3646976484458897  0.6130771948357933  1.0000
  Li  Li116     1.0  0.01208723822373381  0.06375682965114947  0.8003103085608467  1.0000
  Li  Li117     1.0  0.5396314685049093  0.4689315968829223  0.711808962336749  1.0000
  Li  Li118     1.0  0.5675168006858269  0.9706409271534618  0.9690449513505288  1.0000
  Li  Li119     1.0  0.9354654199616397  0.10962489179247786  0.9071897638962428  1.0000
  Li  Li120     1.0  0.6896686466657669  0.3083188119455263  0.9342111906892785  1.0000
  Ge  Ge11      1.0  0.7688974987388772  0.02139175703799429  0.5577374165976405  1.0000
  Ge  Ge12      1.0  0.5694762455611896  0.2070774877117057  0.9089155808776633  1.0000
  P   P21       1.0  0.7931876141866117  0.20518289011008314  0.5004875555758798  1.0000
  P   P22       1.0  0.8184290507476844  0.45278551435891184  0.7495657322619494  1.0000
  P   P23       1.0  0.7122113055309861  0.31619848698801367  0.7339342160914745  1.0000
  P   P24       1.0  0.5528191472676623  0.4839296900223517  0.6056739022990133  1.0000
  S   S121      1.0  0.6108626531723965  0.3903221034449179  0.638231683113405  1.0000
  S   S122      1.0  0.6702989229257157  0.2520907431698361  0.5271797851749952  1.0000
  S   S123      1.0  0.6446114133046311  0.024894817182438685  0.8341155039921403  1.0000
  S   S124      1.0  0.9305087532027918  0.3852769779188064  0.7429492845256213  1.0000
  S   S125      1.0  0.511700220594866  0.12416228836906568  0.9699207798735622  1.0000
  S   S126      1.0  0.9252507319945538  0.4907607549519828  0.8663376651274093  1.0000
  S   S127      1.0  0.5413827181429923  0.11383816787070054  0.7141147642785637  1.0000
  S   S128      1.0  0.787917923903939  0.25268384061294735  0.7712492972714796  1.0000
  S   S129      1.0  0.9383247625507091  0.22031580882345114  0.6081439166659578  1.0000
  S   S130      1.0  0.7087321261650148  0.44285183215934887  0.9472568025129016  1.0000
  S   S131      1.0  0.8212550902483815  0.390478941565059  0.5473772237189475  1.0000
  S   S132      1.0  0.02903630088399578  0.19627204212503827  0.8426624731304364  1.0000
  S   S133      1.0  0.7461063879204209  0.42900700620732707  0.8212904642556889  1.0000
  S   S134      1.0  0.6983751162363588  0.24737576965074606  0.6841663554898602  1.0000
  S   S135      1.0  0.5310148560653336  0.33221811946954666  0.9396858904182372  1.0000
  S   S136      1.0  0.8057378763328399  0.08114895829787465  0.981537521014556  1.0000
  S   S137      1.0  0.769150569528936  0.41520508475226825  0.6953844714240995  1.0000
  S   S138      1.0  0.9923054040657981  0.4539107777677982  0.5616471430195679  1.0000
  S   S139      1.0  0.8046091854336813  0.07270563401713546  0.7336595757055735  1.0000
  S   S140      1.0  0.7034836471134076  0.17376213171975044  0.893127379308322  1.0000
  S   S141      1.0  0.7868913256843795  0.0897796459734764  0.6115800055628232  1.0000
  S   S142      1.0  0.6305591178767397  0.06130385789519455  0.5632689173759443  1.0000
  S   S143      1.0  0.8428251973732004  0.2506743666860859  0.9315397631485128  1.0000
  S   S144      1.0  0.5982056347554883  0.37146951118286287  0.7733229338089476  1.0000
  Li  Li121     1.0  0.693547584010989  0.8885227806871034  0.029561703930001352  1.0000
  Li  Li122     1.0  0.9284112786276422  0.6010195334442741  0.07198992109572111  1.0000
  Li  Li123     1.0  0.9094202895901394  0.6696837883424618  0.19799248217950816  1.0000
  Li  Li124     1.0  0.5617251701421886  0.7335259624920525  0.24591041619531934  1.0000
  Li  Li125     1.0  0.8009700242786794  0.7451449183550201  0.10241612087219731  1.0000
  Li  Li126     1.0  0.6897184000847453  0.5741029920091547  0.19423711599604726  1.0000
  Li  Li127     1.0  0.6965442820425564  0.6544982074285737  0.310252096373978  1.0000
  Li  Li128     1.0  0.6630762649588929  0.5821761033245356  0.4678139154578652  1.0000
  Li  Li129     1.0  0.857502552992996  0.9002913968399262  0.4438121898522837  1.0000
  Li  Li130     1.0  0.9986614415673385  0.7485456266542261  0.019329721879801826  1.0000
  Li  Li131     1.0  0.56099810986376  0.9191635532159061  0.3621648342367647  1.0000
  Li  Li132     1.0  0.9461223779302483  0.8619973798493145  0.3290870023921459  1.0000
  Li  Li133     1.0  0.7801844154804474  0.5198018015567709  0.3794349290437353  1.0000
  Li  Li134     1.0  0.5643665439136517  0.6687890677221029  0.12729859605686114  1.0000
  Li  Li135     1.0  0.8952868253881787  0.8646976097343567  0.11307724991913781  1.0000
  Li  Li136     1.0  0.01208724049986043  0.5637568385842645  0.30031031584384915  1.0000
  Li  Li137     1.0  0.5396313563391477  0.9689316792106871  0.21180901048520862  1.0000
  Li  Li138     1.0  0.5675168310243863  0.4706409215297629  0.4690449705219328  1.0000
  Li  Li139     1.0  0.935465418691148  0.6096248897941156  0.40718976997715434  1.0000
  Li  Li140     1.0  0.689668647863653  0.8083188138310641  0.434211189301658  1.0000
  Ge  Ge13      1.0  0.7688974293273517  0.5213918278519966  0.05773739707740182  1.0000
  Ge  Ge14      1.0  0.5694762739383517  0.7070774630671185  0.4089155771131121  1.0000
  P   P25       1.0  0.7931876324878674  0.7051828973527158  0.00048756829828940177  1.0000
  P   P26       1.0  0.8184292381679188  0.9527853180207252  0.2495657684602291  1.0000
  P   P27       1.0  0.7122113542841753  0.8161984147487754  0.23393423196464  1.0000
  P   P28       1.0  0.5528185347173004  0.9839305132996629  0.10567337817721775  1.0000
  S   S145      1.0  0.6108631590055094  0.890321346069101  0.13823190636219956  1.0000
  S   S146      1.0  0.6702988943813639  0.7520907583769326  0.02717979838059377  1.0000
  S   S147      1.0  0.6446114122459999  0.5248948279679654  0.3341154931483694  1.0000
  S   S148      1.0  0.9305086097237274  0.8852770710961122  0.2429492959127323  1.0000
  S   S149      1.0  0.5117002381247188  0.624162278491346  0.46992077712532226  1.0000
  S   S150      1.0  0.9252507382324163  0.9907607634480867  0.3663376545449302  1.0000
  S   S151      1.0  0.5413827156177209  0.6138381721651501  0.21411478605037645  1.0000
  S   S152      1.0  0.7879178966196843  0.7526838716321139  0.2712492951449714  1.0000
  S   S153      1.0  0.9383247541661031  0.7203158309542622  0.10814392559824014  1.0000
  S   S154      1.0  0.7087321307817626  0.9428518223272209  0.4472568290154773  1.0000
  S   S155      1.0  0.821255070574467  0.890478892044471  0.04737726718730749  1.0000
  S   S156      1.0  0.029036306265278977  0.6962720500319374  0.3426624627686183  1.0000
  S   S157      1.0  0.7461063956363164  0.9290070196361551  0.32129045051864025  1.0000
  S   S158      1.0  0.6983751468103274  0.74737572295351  0.1841663816576341  1.0000
  S   S159      1.0  0.5310148572362808  0.8322181168529644  0.4396858863475245  1.0000
  S   S160      1.0  0.8057378576392624  0.5811489304426963  0.48153755572291557  1.0000
  S   S161      1.0  0.7691505796420498  0.9152050608796165  0.1953844525380264  1.0000
  S   S162      1.0  0.992305438852309  0.95391062878776  0.061647012994771926  1.0000
  S   S163      1.0  0.8046091880471254  0.5727056961299594  0.23365955741319408  1.0000
  S   S164      1.0  0.7034836281654896  0.673762127484754  0.39312738234846745  1.0000
  S   S165      1.0  0.7868913493934258  0.5897796668313925  0.11158002173015132  1.0000
  S   S166      1.0  0.6305591478569805  0.5613036928782386  0.06326898233172108  1.0000
  S   S167      1.0  0.8428252121606625  0.7506743691745534  0.43153975370490716  1.0000
  S   S168      1.0  0.5982056260495666  0.8714695025224614  0.27332293579036004  1.0000
  Li  Li141     1.0  0.6935474939340583  0.8885228514055181  0.5295617771392549  1.0000
  Li  Li142     1.0  0.9284112923107485  0.6010194349663326  0.5719899226758578  1.0000
  Li  Li143     1.0  0.9094203139245426  0.6696837450429209  0.6979924579703933  1.0000
  Li  Li144     1.0  0.5617251671771561  0.7335259963657732  0.7459104034226911  1.0000
  Li  Li145     1.0  0.8009700432971114  0.7451449361581003  0.6024161057380926  1.0000
  Li  Li146     1.0  0.689718389166958  0.5741029831159329  0.6942371078148929  1.0000
  Li  Li147     1.0  0.696544278812949  0.6544982088100544  0.8102520921520326  1.0000
  Li  Li148     1.0  0.6630762615101764  0.5821761145559539  0.9678139042155254  1.0000
  Li  Li149     1.0  0.8575025580978383  0.9002914060396497  0.9438121682350917  1.0000
  Li  Li150     1.0  0.9986614258788227  0.748545623816384  0.5193297433075243  1.0000
  Li  Li151     1.0  0.5609981028174821  0.9191635450976195  0.8621648402434595  1.0000
  Li  Li152     1.0  0.9461223520304156  0.8619974167716653  0.8290869860435093  1.0000
  Li  Li153     1.0  0.7801844002918948  0.5198018048762114  0.8794349281309108  1.0000
  Li  Li154     1.0  0.5643665944746066  0.6687890387901542  0.6272985461425451  1.0000
  Li  Li155     1.0  0.8952868698697648  0.8646976380191256  0.613077210265242  1.0000
  Li  Li156     1.0  0.012087222887825044  0.5637568118133631  0.8003102995516366  1.0000
  Li  Li157     1.0  0.5396314416676083  0.9689316195252827  0.711808973970827  1.0000
  Li  Li158     1.0  0.5675167994058811  0.4706409265828653  0.9690449605264907  1.0000
  Li  Li159     1.0  0.9354654208083469  0.6096248909091453  0.9071897632160641  1.0000
  Li  Li160     1.0  0.6896686521449497  0.808318809256088  0.9342111878280934  1.0000
  Ge  Ge15      1.0  0.7688975204620452  0.5213917408349676  0.5577374212245367  1.0000
  Ge  Ge16      1.0  0.5694762532665345  0.7070774793669452  0.9089155770584446  1.0000
  P   P29       1.0  0.7931876170016011  0.7051828937579856  0.5004875490095547  1.0000
  P   P30       1.0  0.8184290783177794  0.9527854824434339  0.7495657281296504  1.0000
  P   P31       1.0  0.7122113032678098  0.8161984763882624  0.7339342174100439  1.0000
  P   P32       1.0  0.5528190541507114  0.9839298373151056  0.6056738126553021  1.0000
  S   S169      1.0  0.6108627375267927  0.8903219880162226  0.6382317110989868  1.0000
  S   S170      1.0  0.6702989071526014  0.7520907493876156  0.5271797889738079  1.0000
  S   S171      1.0  0.6446114121384217  0.5248948243612989  0.8341155018587406  1.0000
  S   S172      1.0  0.9305087267595678  0.8852770072930165  0.7429492753280482  1.0000
  S   S173      1.0  0.5117002196709943  0.6241622811502806  0.9699207795016698  1.0000
  S   S174      1.0  0.9252507332542019  0.9907607639155972  0.8663376607432264  1.0000
  S   S175      1.0  0.5413827192369697  0.6138381491427986  0.7141147567235927  1.0000
  S   S176      1.0  0.7879179162563444  0.7526838573530424  0.7712492895259019  1.0000
  S   S177      1.0  0.9383247697213655  0.7203157940100045  0.6081439148653851  1.0000
  S   S178      1.0  0.7087321321797185  0.9428518352143491  0.9472568012262115  1.0000
  S   S179      1.0  0.8212550737823472  0.8904789445587837  0.5473772355193913  1.0000
  S   S180      1.0  0.029036305817858432  0.6962720244617725  0.8426624731314755  1.0000
  S   S181      1.0  0.746106397144375  0.9290070027491162  0.8212904605144008  1.0000
  S   S182      1.0  0.6983751150004421  0.7473757649019444  0.684166364461648  1.0000
  S   S183      1.0  0.5310148520773093  0.8322181174347929  0.939685885803773  1.0000
  S   S184      1.0  0.805737875786163  0.5811489626583786  0.9815375261358917  1.0000
  S   S185      1.0  0.7691505619159305  0.9152050827235415  0.6953844679810286  1.0000
  S   S186      1.0  0.992305428002285  0.9539107471139724  0.5616471279773337  1.0000
  S   S187      1.0  0.804609193278352  0.5727056195959673  0.7336595815145468  1.0000
  S   S188      1.0  0.7034836592116641  0.6737621231250155  0.8931273812056744  1.0000
  S   S189      1.0  0.7868913266937402  0.5897796309492941  0.6115800046638562  1.0000
  S   S190      1.0  0.6305591168821064  0.5613038824253328  0.5632689014180556  1.0000
  S   S191      1.0  0.842825204801721  0.7506743668300756  0.9315397626088384  1.0000
  S   S192      1.0  0.5982056397344682  0.8714694907287629  0.773322930622644  1.0000
