data_image0
_chemical_formula_structural       Li20Ge2P4S24
_chemical_formula_sum              "Li20 Ge2 P4 S24"
_cell_length_a       8.696685051614654
_cell_length_b       8.633576019031741
_cell_length_c       13.9593274268324
_cell_angle_alpha    80.57137044299758
_cell_angle_beta     79.32127418861252
_cell_angle_gamma    76.73077657508878

_space_group_name_H-M_alt    "P 1"
_space_group_IT_number       1

loop_
  _space_group_symop_operation_xyz
  'x, y, z'

loop_
  _atom_site_type_symbol
  _atom_site_label
  _atom_site_symmetry_multiplicity
  _atom_site_fract_x
  _atom_site_fract_y
  _atom_site_fract_z
  _atom_site_occupancy
  Li  Li1       1.0  0.3460756426536521  0.7590731840380818  0.07250918116162498  1.0000
  Li  Li2       1.0  0.9164057047900098  0.15835335109083246  0.13681152690441978  1.0000
  Li  Li3       1.0  0.8874623017045362  0.2982983586542048  0.36054883541652705  1.0000
  Li  Li4       1.0  0.16902466669565164  0.5485579428191727  0.42481253924333834  1.0000
  Li  Li5       1.0  0.6480690520670299  0.4290827581044129  0.18739740033447305  1.0000
  Li  Li6       1.0  0.47281869233069423  0.181437323770373  0.3939315508953939  1.0000
  Li  Li7       1.0  0.23488752037644686  0.3020394961728976  0.5873311445003503  1.0000
  Li  Li8       1.0  0.29236517534986634  0.15280157840082592  0.9446720189515558  1.0000
  Li  Li9       1.0  0.6182915412601478  0.786551919074111  0.9206678434355359  1.0000
  Li  Li10      1.0  0.9778494430802193  0.49033780341883004  0.022917293670826646  1.0000
  Li  Li11      1.0  0.17732641424058454  0.7747190726477867  0.6780894511650594  1.0000
  Li  Li12      1.0  0.8546938884226993  0.6838463331674055  0.724676505737111  1.0000
  Li  Li13      1.0  0.4343599500887421  0.049965026997378696  0.7660967975319999  1.0000
  Li  Li14      1.0  0.1791029793493021  0.36056333822712816  0.23962014298714168  1.0000
  Li  Li15      1.0  0.8123001355957826  0.6724235277492181  0.22826155955004693  1.0000
  Li  Li16      1.0  0.8730938329863034  0.36888789123081406  0.5411579197467802  1.0000
  Li  Li17      1.0  0.16974924405207636  0.011750539740567056  0.4892512381606093  1.0000
  Li  Li18      1.0  0.07663381557835153  0.9353024336644913  0.9564695948531526  1.0000
  Li  Li19      1.0  0.8029585328224164  0.2570999229748061  0.8153858479471042  1.0000
  Li  Li20      1.0  0.32646951413061187  0.6136621849469615  0.8797508215139388  1.0000
  Ge  Ge1       1.0  0.5532066518415709  0.02025116815895874  0.13152468356016495  1.0000
  Ge  Ge2       1.0  0.09293580546781186  0.40418021404656657  0.8171572824257957  1.0000
  P   P1        1.0  0.5624861969324998  0.39654103941669683  0.013779951615533416  1.0000
  P   P2        1.0  0.7423824250445255  0.9957016306792615  0.5992830655607262  1.0000
  P   P3        1.0  0.48446689491793876  0.6153856522295391  0.4244116283319542  1.0000
  P   P4        1.0  0.18979862682738743  0.9470376877672517  0.29465457311439297  1.0000
  S   S1        1.0  0.1657271446732212  0.7464775863348371  0.238005889105703  1.0000
  S   S2        1.0  0.32110705447171334  0.4787193729105038  0.060015476677337525  1.0000
  S   S3        1.0  0.3403275090401804  0.9921357575897952  0.624843367145699  1.0000
  S   S4        1.0  0.958137871916757  0.8452027643277462  0.5580072112109776  1.0000
  S   S5        1.0  0.9894155052215935  0.23920632853886822  0.943649276173776  1.0000
  S   S6        1.0  0.7296445932872323  0.01527110244348151  0.7453441730236845  1.0000
  S   S7        1.0  0.12510126118126533  0.289338149511316  0.4317289243244574  1.0000
  S   S8        1.0  0.7201021142360453  0.6048217736355819  0.4231192049861191  1.0000
  S   S9        1.0  0.9223207685660831  0.40518508669006736  0.19211025642182208  1.0000
  S   S10       1.0  0.34578639608414796  0.8842344618062505  0.9054038162138378  1.0000
  S   S11       1.0  0.6258278770522118  0.766972680732244  0.10344206777241433  1.0000
  S   S12       1.0  0.9719415923039744  0.4032898270083581  0.6889979308835882  1.0000
  S   S13       1.0  0.5732636677149596  0.8572127011829904  0.588742245604824  1.0000
  S   S14       1.0  0.4456494723227411  0.47975891044913854  0.3288604167313009  1.0000
  S   S15       1.0  0.026852421369409806  0.6610165910460112  0.852521426444425  1.0000
  S   S16       1.0  0.5798966312002335  0.15728169529841068  0.9772394542906776  1.0000
  S   S17       1.0  0.4049694277028101  0.8673301925302178  0.3659510742594619  1.0000
  S   S18       1.0  0.9992278930951813  0.8492555231439906  0.13998364302890995  1.0000
  S   S19       1.0  0.686858984997224  0.20779191429411145  0.5111482631133548  1.0000
  S   S20       1.0  0.35193211095395566  0.33982790668411533  0.7908591786991089  1.0000
  S   S21       1.0  0.6501865843066158  0.12680654528383795  0.2317891301707192  1.0000
  S   S22       1.0  0.2763602164091497  0.09138214848977909  0.16506423912295118  1.0000
  S   S23       1.0  0.6265383994040684  0.5101752278449315  0.8749474040504657  1.0000
  S   S24       1.0  0.33775342576475  0.5720714043484544  0.5530699749762141  1.0000
