# generated using pymatgen
data_Li10Ge(PS6)2
_symmetry_space_group_name_H-M   'P 1'
_cell_length_a   7.92393398
_cell_length_b   8.03376865
_cell_length_c   12.67246342
_cell_angle_alpha   78.51114655
_cell_angle_beta   74.37251282
_cell_angle_gamma   71.69653320
_symmetry_Int_Tables_number   1
_chemical_formula_structural   Li10Ge(PS6)2
_chemical_formula_sum   'Li20 Ge2 P4 S24'
_cell_volume   731.77505120
_cell_formula_units_Z   2
loop_
 _symmetry_equiv_pos_site_id
 _symmetry_equiv_pos_as_xyz
  1  'x, y, z'
loop_
 _atom_site_type_symbol
 _atom_site_label
 _atom_site_symmetry_multiplicity
 _atom_site_fract_x
 _atom_site_fract_y
 _atom_site_fract_z
 _atom_site_occupancy
  Li  Li0  1  0.27621466  0.78934896  0.07508806  1
  Li  Li1  1  0.90956688  0.14962123  0.15172556  1
  Li  Li2  1  0.78259623  0.30963606  0.39131635  1
  Li  Li3  1  0.09557304  0.54453439  0.42700383  1
  Li  Li4  1  0.51893556  0.51222658  0.22037493  1
  Li  Li5  1  0.45300660  0.14564140  0.38457835  1
  Li  Li6  1  0.26384500  0.28542519  0.56956398  1
  Li  Li7  1  0.34524545  0.23109186  0.94658422  1
  Li  Li8  1  0.75898468  0.84012443  0.88753998  1
  Li  Li9  1  0.98606318  0.59593534  0.05420766  1
  Li  Li10  1  0.14627218  0.82908511  0.71510220  1
  Li  Li11  1  0.84999412  0.63213599  0.65163648  1
  Li  Li12  1  0.49893683  0.02722879  0.71660602  1
  Li  Li13  1  0.20830825  0.33979872  0.21590772  1
  Li  Li14  1  0.81784159  0.69696432  0.27282310  1
  Li  Li15  1  0.75655609  0.26263326  0.63063931  1
  Li  Li16  1  0.05470815  0.96846420  0.53022999  1
  Li  Li17  1  0.03019276  0.04529057  0.88387018  1
  Li  Li18  1  0.63064313  0.39807355  0.83205104  1
  Li  Li19  1  0.42557144  0.68809193  0.88393116  1
  Ge  Ge20  1  0.55883861  0.00374146  0.10649922  1
  Ge  Ge21  1  0.07929710  0.45138085  0.79778826  1
  P  P22  1  0.70116663  0.38111153  0.02666459  1
  P  P23  1  0.64266968  0.85595596  0.51027268  1
  P  P24  1  0.47217926  0.64223337  0.52712673  1
  P  P25  1  0.12973551  0.93590277  0.28366202  1
  S  S26  1  0.19004634  0.62213075  0.23713771  1
  S  S27  1  0.39838493  0.46393037  0.01861533  1
  S  S28  1  0.26778504  0.03141515  0.65238070  1
  S  S29  1  0.93686932  0.88373595  0.38898888  1
  S  S30  1  0.04190212  0.28765890  0.94463706  1
  S  S31  1  0.84253758  0.92584157  0.68730378  1
  S  S32  1  0.12579736  0.20235753  0.39978227  1
  S  S33  1  0.77105987  0.56470907  0.48090780  1
  S  S34  1  0.87488180  0.41333613  0.19173415  1
  S  S35  1  0.42283273  0.94763130  0.91525829  1
  S  S36  1  0.63643068  0.73647147  0.11341155  1
  S  S37  1  0.96955627  0.31707215  0.69926208  1
  S  S38  1  0.55344409  0.70745236  0.65639669  1
  S  S39  1  0.44059974  0.45671850  0.41812643  1
  S  S40  1  0.11612492  0.70658338  0.88015503  1
  S  S41  1  0.71512300  0.12305659  0.94826877  1
  S  S42  1  0.46473423  0.86215109  0.39862436  1
  S  S43  1  0.97402805  0.89043283  0.13550994  1
  S  S44  1  0.64972293  0.11349158  0.50973183  1
  S  S45  1  0.43030962  0.34180284  0.73809230  1
  S  S46  1  0.60756373  0.20899236  0.18951173  1
  S  S47  1  0.28271013  0.06447374  0.16142766  1
  S  S48  1  0.78596175  0.56588155  0.88541174  1
  S  S49  1  0.17879452  0.60561228  0.60254478  1
