data_image0
_chemical_formula_structural       Li20Ge2P4S24
_chemical_formula_sum              "Li20 Ge2 P4 S24"
_cell_length_a       8.511367135511154
_cell_length_b       8.718309440365438
_cell_length_c       14.282366097804706
_cell_angle_alpha    80.76105458715288
_cell_angle_beta     75.00958491828543
_cell_angle_gamma    74.4335964663749

_space_group_name_H-M_alt    "P 1"
_space_group_IT_number       1

loop_
  _space_group_symop_operation_xyz
  'x, y, z'

loop_
  _atom_site_type_symbol
  _atom_site_label
  _atom_site_symmetry_multiplicity
  _atom_site_fract_x
  _atom_site_fract_y
  _atom_site_fract_z
  _atom_site_occupancy
  Li  Li1       1.0  0.35245503655511085  0.7884668743224448  0.07171083447396205  1.0000
  Li  Li2       1.0  0.9511006665877475  0.17221018384550285  0.1396608375829448  1.0000
  Li  Li3       1.0  0.8562700225069487  0.31817376256982594  0.3759557880856641  1.0000
  Li  Li4       1.0  0.10566765501446386  0.5367846955595621  0.4372054187963227  1.0000
  Li  Li5       1.0  0.6428207746301934  0.43374115243301814  0.19899504678169241  1.0000
  Li  Li6       1.0  0.4596465295591901  0.14128036328002352  0.3874251982380643  1.0000
  Li  Li7       1.0  0.24487516324956957  0.2756473512655047  0.5802193579045447  1.0000
  Li  Li8       1.0  0.32445408888650695  0.17543525289690975  0.9407161032653766  1.0000
  Li  Li9       1.0  0.6784791997869053  0.77055755106739  0.9224353258121553  1.0000
  Li  Li10      1.0  0.975454769254287  0.5490568362663573  0.04408675362284826  1.0000
  Li  Li11      1.0  0.13708039977830871  0.7908527663586571  0.6934333204968511  1.0000
  Li  Li12      1.0  0.8159760550531295  0.6734516212652886  0.7146047688814048  1.0000
  Li  Li13      1.0  0.480426220490608  0.04972876398399777  0.7603744642369047  1.0000
  Li  Li14      1.0  0.1864542981293479  0.34135964060668034  0.24610880285755832  1.0000
  Li  Li15      1.0  0.8163662852915464  0.697387988692311  0.2350408886719594  1.0000
  Li  Li16      1.0  0.8584905255703991  0.2672657005785264  0.571610411318235  1.0000
  Li  Li17      1.0  0.09372857172528688  0.9664933042377208  0.4927642809969556  1.0000
  Li  Li18      1.0  0.13803211151617026  0.00779858032352296  0.8749096292602258  1.0000
  Li  Li19      1.0  0.725383820688135  0.27837000647223775  0.7887793319235699  1.0000
  Li  Li20      1.0  0.34269503895633663  0.641831847403706  0.8862930138069209  1.0000
  Ge  Ge1       1.0  0.5889414327471281  0.023272691113973187  0.1194083815767753  1.0000
  Ge  Ge2       1.0  0.10570551028522851  0.4153542963899653  0.8195527521279846  1.0000
  P   P1        1.0  0.5950349009525612  0.40253080527730595  0.011528667903539963  1.0000
  P   P2        1.0  0.701607645032625  0.97668367185224  0.565904811437907  1.0000
  P   P3        1.0  0.4578581095437339  0.6112545757684562  0.436022580013453  1.0000
  P   P4        1.0  0.23584034577905685  0.9275926777935116  0.3004587331957499  1.0000
  S   S1        1.0  0.19144124304779145  0.7348352928667157  0.24847459550641443  1.0000
  S   S2        1.0  0.3438701264654964  0.4902909062352859  0.07066626891791811  1.0000
  S   S3        1.0  0.2764382953991815  0.004664092737021754  0.6745537489354219  1.0000
  S   S4        1.0  0.8750826706648799  0.84506893541483  0.46851560436171863  1.0000
  S   S5        1.0  0.0172536979347832  0.26000670547366056  0.952427465117585  1.0000
  S   S6        1.0  0.8105551407349147  0.9945108083017591  0.6817104027885275  1.0000
  S   S7        1.0  0.10828414384105464  0.24988485115903905  0.444653219885401  1.0000
  S   S8        1.0  0.6777306774991697  0.5515796667800736  0.4752986987528981  1.0000
  S   S9        1.0  0.9207028753827328  0.4197494163862963  0.20878513391310707  1.0000
  S   S10       1.0  0.39846246323798323  0.8997131056977125  0.908080811287766  1.0000
  S   S11       1.0  0.6700309592022791  0.7668134727800285  0.0960847335182486  1.0000
  S   S12       1.0  0.9867990919871862  0.40093521741029836  0.6970287399627602  1.0000
  S   S13       1.0  0.5135739201728814  0.8474900147160948  0.6306072240451854  1.0000
  S   S14       1.0  0.4244546565901458  0.4637576520452517  0.34870867821986073  1.0000
  S   S15       1.0  0.030475819710827183  0.674054824629099  0.858248367934502  1.0000
  S   S16       1.0  0.613977294857462  0.16609036912220018  0.9706076531909406  1.0000
  S   S17       1.0  0.4731307050974798  0.8347797006438188  0.3471799220528633  1.0000
  S   S18       1.0  0.03437411678409408  0.8482002581325614  0.15343032268450701  1.0000
  S   S19       1.0  0.6039451240225521  0.19982757042798183  0.5101913906804643  1.0000
  S   S20       1.0  0.3828779093210076  0.3461063346964788  0.781061972977764  1.0000
  S   S21       1.0  0.663199717269602  0.1324342647811568  0.22265208830021832  1.0000
  S   S22       1.0  0.2986241418387667  0.07418029944838593  0.16877049077715292  1.0000
  S   S23       1.0  0.6439145587514802  0.5167598107580494  0.8722793119241967  1.0000
  S   S24       1.0  0.24009890507582454  0.6503006739456717  0.5407920738363542  1.0000
