data_image0
_chemical_formula_structural       Li20Ge2P4S24Li20Ge2P4S24Li20Ge2P4S24Li20Ge2P4S24Li20Ge2P4S24Li20Ge2P4S24Li20Ge2P4S24Li20Ge2P4S24
_chemical_formula_sum              "Li160 Ge16 P32 S192"
_cell_length_a       15.986461389101857
_cell_length_b       16.216217953415978
_cell_length_c       25.641353038670495
_cell_angle_alpha    78.6773672856725
_cell_angle_beta     74.4369329780352
_cell_angle_gamma    71.90076421585361

_space_group_name_H-M_alt    "P 1"
_space_group_IT_number       1

loop_
  _space_group_symop_operation_xyz
  'x, y, z'

loop_
  _atom_site_type_symbol
  _atom_site_label
  _atom_site_symmetry_multiplicity
  _atom_site_fract_x
  _atom_site_fract_y
  _atom_site_fract_z
  _atom_site_occupancy
  Li  Li1       1.0  0.19465452425041146  0.3745229816485288  0.03328666081066279  1.0000
  Li  Li2       1.0  0.45623368519280255  0.09403851751487605  0.07941177507224292  1.0000
  Li  Li3       1.0  0.4064432160170765  0.1484655281104759  0.1947932039037171  1.0000
  Li  Li4       1.0  0.043706094102936965  0.2663310482287103  0.2164580884486181  1.0000
  Li  Li5       1.0  0.30679869636958906  0.23920189529720381  0.0956901839173549  1.0000
  Li  Li6       1.0  0.19956652506758757  0.0780817200958435  0.1989822917504938  1.0000
  Li  Li7       1.0  0.13080154909534455  0.15578056139899635  0.28567160644947276  1.0000
  Li  Li8       1.0  0.1900910735073954  0.09979826967912196  0.4707386970554986  1.0000
  Li  Li9       1.0  0.3674609597806887  0.4254841560673908  0.4379833819176649  1.0000
  Li  Li10      1.0  0.5120304469348239  0.27941640840080645  0.031243637690353813  1.0000
  Li  Li11      1.0  0.03770911449422642  0.4163603640285561  0.35459109554248314  1.0000
  Li  Li12      1.0  0.40878762339206437  0.3298674664322054  0.3194752977636896  1.0000
  Li  Li13      1.0  0.24793161191184956  0.03542596581822814  0.3651696411241243  1.0000
  Li  Li14      1.0  0.09862535453557097  0.16865563993967272  0.12736982442503325  1.0000
  Li  Li15      1.0  0.39724291603908396  0.36307512140930376  0.13015143990153205  1.0000
  Li  Li16      1.0  0.4281614884324458  0.09933467593792586  0.2977589584358144  1.0000
  Li  Li17      1.0  0.03044231700183155  0.46640253096252793  0.24787064769397643  1.0000
  Li  Li18      1.0  0.05541114952173709  0.0138303470931707  0.447795347972955  1.0000
  Li  Li19      1.0  0.3434754917942042  0.16846331732654482  0.38976259710957434  1.0000
  Li  Li20      1.0  0.19011550534936586  0.32145658336223426  0.4257705319810142  1.0000
  Ge  Ge1       1.0  0.3006333055770836  0.009466585058268482  0.05545125796943037  1.0000
  Ge  Ge2       1.0  0.05114135192957331  0.22807714266985687  0.4140782802799131  1.0000
  P   P1        1.0  0.3373472526644098  0.20000458605096397  0.996134161475456  1.0000
  P   P2        1.0  0.31145904102316235  0.45117692523006364  0.25230754501198516  1.0000
  P   P3        1.0  0.223426554672776  0.3072120424771165  0.2477593892647194  1.0000
  P   P4        1.0  0.0653904136145499  0.46374873693005336  0.12224601530866057  1.0000
  S   S1        1.0  0.13666425210313288  0.3317248044864056  0.13415996554802118  1.0000
  S   S2        1.0  0.19818143404537797  0.2276433976256487  0.02028421929010712  1.0000
  S   S3        1.0  0.11765924251482075  0.017549166171582593  0.33949903326241965  1.0000
  S   S4        1.0  0.4378950932530108  0.40601973692789706  0.20802336697523946  1.0000
  S   S5        1.0  0.02502268661758752  0.14594247813931482  0.4908992432211071  1.0000
  S   S6        1.0  0.40176033748582063  0.46968364897536075  0.3364904942283789  1.0000
  S   S7        1.0  0.04636452516571389  0.11800620560122128  0.22403397846451803  1.0000
  S   S8        1.0  0.33922451854923436  0.24534087330471038  0.2762705088105377  1.0000
  S   S9        1.0  0.4545441980360171  0.2178011164953986  0.11536321700607749  1.0000
  S   S10       1.0  0.20766939342602714  0.45737758775594595  0.4508949108461854  1.0000
  S   S11       1.0  0.34369566194968887  0.37240825074904904  0.04626898004170911  1.0000
  S   S12       1.0  0.49456343630429345  0.1767282406646372  0.35657121499317684  1.0000
  S   S13       1.0  0.2211321853403969  0.4017647503910381  0.32709926384684834  1.0000
  S   S14       1.0  0.23141968831378393  0.22692019107074948  0.19263798321646491  1.0000
  S   S15       1.0  0.026279685958793954  0.3579199318526026  0.4433352216861902  1.0000
  S   S16       1.0  0.3671265976935669  0.07039662769547239  0.47010957176105655  1.0000
  S   S17       1.0  0.23917391733687535  0.423726557373965  0.19517266982293327  1.0000
  S   S18       1.0  0.5145337099227494  0.44015249293537156  0.06262418568256155  1.0000
  S   S19       1.0  0.29233102053284726  0.07935319632518513  0.2563758028501584  1.0000
  S   S20       1.0  0.19863433929723726  0.18772237654129068  0.38010410721223337  1.0000
  S   S21       1.0  0.31328728579585213  0.07604445833363128  0.11825897912580985  1.0000
  S   S22       1.0  0.14801796453886798  0.04638651336231099  0.07579469074018841  1.0000
  S   S23       1.0  0.35147456763758994  0.28538497393201445  0.42580369032270676  1.0000
  S   S24       1.0  0.09332872130599086  0.31663200252769946  0.28898031361024884  1.0000
  Li  Li21      1.0  0.194654522317284  0.37452297752915364  0.5332866647135087  1.0000
  Li  Li22      1.0  0.4562336852746085  0.09403851517974768  0.579411770916165  1.0000
  Li  Li23      1.0  0.4064432218769627  0.1484655342232697  0.6947932015276604  1.0000
  Li  Li24      1.0  0.04370609773550602  0.26633105022299375  0.7164580870661187  1.0000
  Li  Li25      1.0  0.30679869232259355  0.23920188791047634  0.595690188024556  1.0000
  Li  Li26      1.0  0.199566524746225  0.07808170895734695  0.6989822926709924  1.0000
  Li  Li27      1.0  0.13080154964759463  0.15578055928701165  0.7856716061444552  1.0000
  Li  Li28      1.0  0.19009107750763346  0.09979826701186446  0.9707386932036903  1.0000
  Li  Li29      1.0  0.36746095921886224  0.42548415786334837  0.9379833794818225  1.0000
  Li  Li30      1.0  0.5120304475204063  0.2794164104772927  0.5312436431433718  1.0000
  Li  Li31      1.0  0.03770911024181126  0.41636036664787046  0.8545910948256847  1.0000
  Li  Li32      1.0  0.40878763126939116  0.3298674684048286  0.8194752967744642  1.0000
  Li  Li33      1.0  0.24793160919964216  0.03542596596389876  0.8651696411561156  1.0000
  Li  Li34      1.0  0.09862534795729762  0.16865564992815815  0.6273698303214047  1.0000
  Li  Li35      1.0  0.39724290808560464  0.36307511040020973  0.6301514450202571  1.0000
  Li  Li36      1.0  0.4281614873494873  0.09933467532252739  0.7977589589248152  1.0000
  Li  Li37      1.0  0.030442327036228376  0.4664025284574354  0.7478706444815508  1.0000
  Li  Li38      1.0  0.05541114873493679  0.01383034244947568  0.9477953444941439  1.0000
  Li  Li39      1.0  0.34347548649480236  0.16846332164850394  0.8897625940199204  1.0000
  Li  Li40      1.0  0.19011549962713073  0.3214565793399485  0.9257705334106099  1.0000
  Ge  Ge3       1.0  0.30063330226276563  0.009466594876207664  0.5554512539327625  1.0000
  Ge  Ge4       1.0  0.051141338608422945  0.2280771442776438  0.9140782750682105  1.0000
  P   P5        1.0  0.33734725508326247  0.20000458560865644  0.4961341614321549  1.0000
  P   P6        1.0  0.3114590307055088  0.4511769256447297  0.7523075495376355  1.0000
  P   P7        1.0  0.22342655176759704  0.3072120341502682  0.7477593867906338  1.0000
  P   P8        1.0  0.06539041128822018  0.4637487459608296  0.6222460114744764  1.0000
  S   S25       1.0  0.13666426196117198  0.3317248095668676  0.6341599663734011  1.0000
  S   S26       1.0  0.19818142950100526  0.22764339934548614  0.520284218250481  1.0000
  S   S27       1.0  0.11765924726096408  0.017549163394234166  0.8394990316424202  1.0000
  S   S28       1.0  0.4378950850103898  0.4060197246885038  0.7080233700927625  1.0000
  S   S29       1.0  0.025022689136513  0.14594247341322028  0.9908992415532835  1.0000
  S   S30       1.0  0.40176033726076715  0.4696836507905652  0.8364904905057104  1.0000
  S   S31       1.0  0.04636452369367109  0.11800620476013195  0.7240339746397692  1.0000
  S   S32       1.0  0.33922451676555904  0.24534087244944178  0.7762705137753688  1.0000
  S   S33       1.0  0.45454419501022775  0.21780110961203  0.6153632168350248  1.0000
  S   S34       1.0  0.2076693986731192  0.4573775872086762  0.9508949111020838  1.0000
  S   S35       1.0  0.34369566814247565  0.37240824681013385  0.5462689811754999  1.0000
  S   S36       1.0  0.4945634374017043  0.1767282348122187  0.8565712145579465  1.0000
  S   S37       1.0  0.22113217742470595  0.40176474975311255  0.8270992660493011  1.0000
  S   S38       1.0  0.23141968901442866  0.22692018674352687  0.6926379865291066  1.0000
  S   S39       1.0  0.026279685747299972  0.35791993322737403  0.9433352243328963  1.0000
  S   S40       1.0  0.36712660255678253  0.07039662939301616  0.9701095693903093  1.0000
  S   S41       1.0  0.23917391421868217  0.42372655514216007  0.6951726718317542  1.0000
  S   S42       1.0  0.5145337137772945  0.44015247953172937  0.562624210029154  1.0000
  S   S43       1.0  0.29233102659494714  0.07935318573238412  0.7563758044475336  1.0000
  S   S44       1.0  0.19863433464171862  0.1877223684422728  0.8801041092438014  1.0000
  S   S45       1.0  0.31328727909072396  0.07604446188593673  0.6182589775291161  1.0000
  S   S46       1.0  0.14801796725903044  0.04638651548960965  0.5757946953729273  1.0000
  S   S47       1.0  0.35147457002171306  0.2853849703231926  0.9258036864916729  1.0000
  S   S48       1.0  0.09332871410312134  0.31663201220436327  0.7889803156685575  1.0000
  Li  Li41      1.0  0.19465451921445165  0.8745229938778043  0.03328666402379078  1.0000
  Li  Li42      1.0  0.4562336741361521  0.5940385165104356  0.07941176599419573  1.0000
  Li  Li43      1.0  0.40644322859792564  0.6484655081353642  0.19479319656889568  1.0000
  Li  Li44      1.0  0.04370610069728818  0.7663310457710464  0.2164580931279246  1.0000
  Li  Li45      1.0  0.3067986950727066  0.739201888904547  0.0956901813186144  1.0000
  Li  Li46      1.0  0.19956652615325324  0.578081727425468  0.1989822897014819  1.0000
  Li  Li47      1.0  0.13080155173272606  0.6557805604889405  0.28567161237329225  1.0000
  Li  Li48      1.0  0.1900910761368919  0.5997982706884907  0.47073869421831815  1.0000
  Li  Li49      1.0  0.36746096223224445  0.9254841542498021  0.4379833808389878  1.0000
  Li  Li50      1.0  0.5120304551069907  0.7794164057393067  0.031243643751955423  1.0000
  Li  Li51      1.0  0.03770911478511524  0.9163603651342326  0.35459109490582075  1.0000
  Li  Li52      1.0  0.4087876289071056  0.8298674749537738  0.31947529442406075  1.0000
  Li  Li53      1.0  0.2479316106580626  0.535425958912769  0.3651696388135848  1.0000
  Li  Li54      1.0  0.0986253410271519  0.6686556402285755  0.12736983474066832  1.0000
  Li  Li55      1.0  0.3972429120172419  0.8630750999971127  0.13015144825498806  1.0000
  Li  Li56      1.0  0.42816147301298185  0.5993346754884104  0.2977589597588968  1.0000
  Li  Li57      1.0  0.030442322895422338  0.9664025293968557  0.24787064279524004  1.0000
  Li  Li58      1.0  0.05541114659475172  0.5138303437246133  0.4477953487701458  1.0000
  Li  Li59      1.0  0.34347548059306404  0.6684633205517679  0.3897626018026281  1.0000
  Li  Li60      1.0  0.19011550039343864  0.821456586493456  0.4257705357772564  1.0000
  Ge  Ge5       1.0  0.30063329753953183  0.5094665903334331  0.055451257774632105  1.0000
  Ge  Ge6       1.0  0.051141348053455354  0.7280771451431958  0.4140782852386103  1.0000
  P   P9        1.0  0.33734725373852376  0.7000045857014945  0.9961341620799634  1.0000
  P   P10       1.0  0.3114590339755347  0.9511769223379195  0.25230754790323745  1.0000
  P   P11       1.0  0.2234265604419416  0.8072120415340259  0.24775938129804698  1.0000
  P   P12       1.0  0.06539041276573632  0.9637487483353249  0.12224603102540463  1.0000
  S   S49       1.0  0.13666425515332215  0.83172479498142  0.1341599615021572  1.0000
  S   S50       1.0  0.1981814288795433  0.7276434023330705  0.020284217755477518  1.0000
  S   S51       1.0  0.1176592400909926  0.5175491669007334  0.3394990298009303  1.0000
  S   S52       1.0  0.4378950876882222  0.9060197270839647  0.20802336909001024  1.0000
  S   S53       1.0  0.025022687847672632  0.6459424751137214  0.4908992370206299  1.0000
  S   S54       1.0  0.4017603373644098  0.9696836543685121  0.3364904872213389  1.0000
  S   S55       1.0  0.04636451940263454  0.6180062022280146  0.22403398029811106  1.0000
  S   S56       1.0  0.3392245118109295  0.7453408726881249  0.2762705074003562  1.0000
  S   S57       1.0  0.4545441902908689  0.7178011052523756  0.1153632108829079  1.0000
  S   S58       1.0  0.20766939719868907  0.9573775935871469  0.45089491299894646  1.0000
  S   S59       1.0  0.3436956677252656  0.8724082542422474  0.046268984696430995  1.0000
  S   S60       1.0  0.49456343218312604  0.6767282396440943  0.356571218454311  1.0000
  S   S61       1.0  0.22113217521650239  0.9017647532297628  0.32709926625773134  1.0000
  S   S62       1.0  0.2314196710905211  0.7269202142232407  0.1926379785887595  1.0000
  S   S63       1.0  0.026279689228581888  0.8579199300761481  0.44333522346879245  1.0000
  S   S64       1.0  0.3671265961007296  0.5703966299696579  0.47010957200074205  1.0000
  S   S65       1.0  0.23917391853680384  0.9237265542820638  0.19517267577396022  1.0000
  S   S66       1.0  0.5145337275790121  0.9401524760042607  0.06262421961031206  1.0000
  S   S67       1.0  0.2923310164539924  0.5793532038773618  0.2563757970753492  1.0000
  S   S68       1.0  0.19863434176033795  0.6877223707973114  0.38010410221285273  1.0000
  S   S69       1.0  0.3132872795871856  0.5760444589995768  0.11825897232546091  1.0000
  S   S70       1.0  0.14801795810042273  0.5463865171722805  0.07579469032883404  1.0000
  S   S71       1.0  0.35147457212953803  0.785384971992192  0.42580368654286954  1.0000
  S   S72       1.0  0.093328721131019  0.8166320051644337  0.2889803114131057  1.0000
  Li  Li61      1.0  0.19465452451385248  0.8745229807032113  0.5332866626794587  1.0000
  Li  Li62      1.0  0.45623367771131  0.594038509729241  0.5794117730288376  1.0000
  Li  Li63      1.0  0.4064432216524018  0.6484655229779109  0.6947932022819413  1.0000
  Li  Li64      1.0  0.043706100132995945  0.7663310520060177  0.7164580912212128  1.0000
  Li  Li65      1.0  0.3067986916510042  0.7392018894612865  0.5956901848185898  1.0000
  Li  Li66      1.0  0.19956652103951011  0.5780817184352464  0.6989822920833397  1.0000
  Li  Li67      1.0  0.13080154997523274  0.6557805588522634  0.7856716107160875  1.0000
  Li  Li68      1.0  0.1900910751044278  0.5997982723477439  0.9707386932698261  1.0000
  Li  Li69      1.0  0.3674609612433262  0.925484156146457  0.9379833821894705  1.0000
  Li  Li70      1.0  0.512030454116876  0.779416410958772  0.5312436392630127  1.0000
  Li  Li71      1.0  0.03770911234056444  0.9163603640523587  0.8545910925279279  1.0000
  Li  Li72      1.0  0.40878762631910814  0.8298674721233611  0.8194752932641848  1.0000
  Li  Li73      1.0  0.2479316091557602  0.535425954560845  0.8651696408823271  1.0000
  Li  Li74      1.0  0.09862533962292333  0.6686556436650193  0.6273698343330988  1.0000
  Li  Li75      1.0  0.39724291264769396  0.8630751032641596  0.6301514441924724  1.0000
  Li  Li76      1.0  0.42816148158985823  0.5993346764939737  0.7977589602352635  1.0000
  Li  Li77      1.0  0.030442328376728632  0.9664025330314434  0.747870641277129  1.0000
  Li  Li78      1.0  0.05541114617014424  0.5138303424406921  0.9477953471125984  1.0000
  Li  Li79      1.0  0.3434754837396006  0.6684633280978205  0.8897625955065998  1.0000
  Li  Li80      1.0  0.19011550152493908  0.8214565865468901  0.9257705329656709  1.0000
  Ge  Ge7       1.0  0.3006332952268424  0.5094665956218999  0.555451259058709  1.0000
  Ge  Ge8       1.0  0.05114134963349586  0.7280771471332494  0.9140782755473456  1.0000
  P   P13       1.0  0.33734726298494444  0.7000045865986209  0.49613415787172943  1.0000
  P   P14       1.0  0.3114590385153505  0.951176927136579  0.7523075482820135  1.0000
  P   P15       1.0  0.22342655279709173  0.807212043243867  0.7477593845904594  1.0000
  P   P16       1.0  0.06539041690508648  0.9637487457612406  0.6222460172460299  1.0000
  S   S73       1.0  0.13666425590018583  0.831724794518117  0.6341599647595658  1.0000
  S   S74       1.0  0.1981814337811849  0.7276433974620105  0.5202842186196085  1.0000
  S   S75       1.0  0.11765923892967318  0.5175491628704671  0.8394990334429882  1.0000
  S   S76       1.0  0.43789508362416557  0.9060197270646705  0.7080233709307547  1.0000
  S   S77       1.0  0.025022681225680358  0.6459424742498543  0.9908992434729068  1.0000
  S   S78       1.0  0.40176033665670785  0.9696836566025785  0.8364904876050347  1.0000
  S   S79       1.0  0.04636452147404478  0.6180062005690379  0.7240339810996607  1.0000
  S   S80       1.0  0.3392245150967215  0.7453408708276693  0.7762705088161115  1.0000
  S   S81       1.0  0.4545441932614546  0.7178011086974894  0.6153632154471337  1.0000
  S   S82       1.0  0.20766939926573166  0.9573775884176461  0.9508949116293044  1.0000
  S   S83       1.0  0.3436956669358632  0.8724082528180488  0.5462689808124241  1.0000
  S   S84       1.0  0.4945634288976911  0.6767282513401096  0.8565712171221473  1.0000
  S   S85       1.0  0.22113217213241726  0.901764744530511  0.8270992692057096  1.0000
  S   S86       1.0  0.23141968065093327  0.7269201989429792  0.6926379848177262  1.0000
  S   S87       1.0  0.026279685775348248  0.8579199339473425  0.943335225967194  1.0000
  S   S88       1.0  0.3671265943504897  0.5703966336431958  0.9701095694275619  1.0000
  S   S89       1.0  0.23917392218693861  0.9237265507402826  0.695172675894974  1.0000
  S   S90       1.0  0.5145337182829929  0.9401524794054766  0.5626242135519172  1.0000
  S   S91       1.0  0.29233102050807536  0.5793531957786134  0.7563758011149582  1.0000
  S   S92       1.0  0.19863433725133398  0.6877223714709204  0.8801041043920507  1.0000
  S   S93       1.0  0.3132872755967108  0.5760444579402538  0.6182589777908848  1.0000
  S   S94       1.0  0.148017961116704  0.5463865166117396  0.5757946924537328  1.0000
  S   S95       1.0  0.351474568088772  0.7853849712270263  0.9258036866994748  1.0000
  S   S96       1.0  0.09332872112263149  0.8166320020401631  0.7889803081685638  1.0000
  Li  Li81      1.0  0.6946545257360597  0.3745229435523752  0.033286666899629704  1.0000
  Li  Li82      1.0  0.9562336874843491  0.09403852209334804  0.07941177523813489  1.0000
  Li  Li83      1.0  0.9064432015291558  0.1484655433722134  0.1947932040907603  1.0000
  Li  Li84      1.0  0.5437061182374708  0.2663310618972016  0.21645807889731372  1.0000
  Li  Li85      1.0  0.8067986892686391  0.23920189661522712  0.09569019446795013  1.0000
  Li  Li86      1.0  0.6995665237097468  0.07808171765593691  0.19898229178163582  1.0000
  Li  Li87      1.0  0.6308015530037152  0.15578056001651713  0.2856716050222375  1.0000
  Li  Li88      1.0  0.6900910757612202  0.09979826881970418  0.47073869604081464  1.0000
  Li  Li89      1.0  0.8674609569569683  0.4254841587469856  0.43798338256730973  1.0000
  Li  Li90      1.0  0.012030458046646153  0.27941639667582374  0.031243643765857955  1.0000
  Li  Li91      1.0  0.5377091173051219  0.41636036528761305  0.35459109218967283  1.0000
  Li  Li92      1.0  0.9087876351021941  0.3298674775573419  0.3194752977572402  1.0000
  Li  Li93      1.0  0.7479316074983926  0.03542595641293735  0.36516964076412184  1.0000
  Li  Li94      1.0  0.5986253549712007  0.1686556619835469  0.12736982905575545  1.0000
  Li  Li95      1.0  0.8972429151492978  0.36307510608931587  0.1301514488223016  1.0000
  Li  Li96      1.0  0.9281614921849609  0.09933467372232255  0.29775895856267015  1.0000
  Li  Li97      1.0  0.5304423357207892  0.46640253014109684  0.24787065010484183  1.0000
  Li  Li98      1.0  0.5554111503986505  0.01383034315729584  0.4477953537332447  1.0000
  Li  Li99      1.0  0.8434754856564546  0.1684633242481062  0.38976259210442826  1.0000
  Li  Li100     1.0  0.690115498988756  0.32145657988573856  0.4257705390879767  1.0000
  Ge  Ge9       1.0  0.8006332950000493  0.009466594131139558  0.05545125281073958  1.0000
  Ge  Ge10      1.0  0.5511413353394403  0.22807715051762328  0.414078281301772  1.0000
  P   P17       1.0  0.8373472560663598  0.20000458206383626  0.9961341613876725  1.0000
  P   P18       1.0  0.8114590201834733  0.4511769236670342  0.2523075405413154  1.0000
  P   P19       1.0  0.7234265532923844  0.3072120301136599  0.24775938852613572  1.0000
  P   P20       1.0  0.5653903960460812  0.4637487335749625  0.12224597960009595  1.0000
  S   S97       1.0  0.6366642584086423  0.33172483881338466  0.13415996464928417  1.0000
  S   S98       1.0  0.6981814312780755  0.22764338927082103  0.02028421811195854  1.0000
  S   S99       1.0  0.6176592400631173  0.017549167543146307  0.33949903604152215  1.0000
  S   S100      1.0  0.937895078390997  0.40601971440419726  0.20802337725444556  1.0000
  S   S101      1.0  0.5250226814414779  0.145942474150103  0.4908992440936912  1.0000
  S   S102      1.0  0.9017603400169847  0.46968365959987723  0.3364905025341397  1.0000
  S   S103      1.0  0.5463645222826236  0.11800621324990794  0.22403397896645783  1.0000
  S   S104      1.0  0.8392245096504294  0.24534087447411898  0.2762705278926643  1.0000
  S   S105      1.0  0.9545442070010497  0.21780110939727254  0.11536321702959754  1.0000
  S   S106      1.0  0.7076693913809828  0.4573775861479867  0.45089491971682044  1.0000
  S   S107      1.0  0.8436956719997404  0.37240824483698476  0.046268984274321176  1.0000
  S   S108      1.0  0.9945634342463621  0.1767282391976006  0.3565712190371049  1.0000
  S   S109      1.0  0.7211321788301424  0.4017647571113465  0.3270992739562047  1.0000
  S   S110      1.0  0.7314197004626259  0.2269201683682146  0.19263799593864905  1.0000
  S   S111      1.0  0.5262796873460494  0.357919930035401  0.44333522365162137  1.0000
  S   S112      1.0  0.8671266028334255  0.07039662956344213  0.47010957016998695  1.0000
  S   S113      1.0  0.7391739114078821  0.4237265444069983  0.19517267231463287  1.0000
  S   S114      1.0  0.014533727581593103  0.44015246597824736  0.06262422429084351  1.0000
  S   S115      1.0  0.7923310276629846  0.07935317808875889  0.25637581213656135  1.0000
  S   S116      1.0  0.6986343369524467  0.18772236262318842  0.38010410767996367  1.0000
  S   S117      1.0  0.8132872814412065  0.07604445407691902  0.11825898281621854  1.0000
  S   S118      1.0  0.6480179690827355  0.04638652307856666  0.07579470097771189  1.0000
  S   S119      1.0  0.8514745710264076  0.2853849698439502  0.42580368905700616  1.0000
  S   S120      1.0  0.5933287153951837  0.31663200959948246  0.2889803183372067  1.0000
  Li  Li101     1.0  0.6946545275808838  0.3745229608369913  0.5332866647905684  1.0000
  Li  Li102     1.0  0.9562336919773837  0.09403851419568347  0.5794117760355808  1.0000
  Li  Li103     1.0  0.9064432083484194  0.1484655373224303  0.6947932029875028  1.0000
  Li  Li104     1.0  0.5437061083314547  0.26633105662604206  0.7164580860161326  1.0000
  Li  Li105     1.0  0.8067986959224381  0.23920189636828354  0.5956901907441573  1.0000
  Li  Li106     1.0  0.6995665238191551  0.07808172087161834  0.6989822917093356  1.0000
  Li  Li107     1.0  0.6308015527790669  0.1557805604804235  0.7856716037190709  1.0000
  Li  Li108     1.0  0.6900910838502178  0.09979826622983057  0.9707386935927401  1.0000
  Li  Li109     1.0  0.8674609639938202  0.42548415264831707  0.9379833831893131  1.0000
  Li  Li110     1.0  0.01203044955344712  0.27941640972110554  0.5312436429634784  1.0000
  Li  Li111     1.0  0.5377091100782316  0.4163603651284826  0.8545910961939781  1.0000
  Li  Li112     1.0  0.9087876302493664  0.3298674721863177  0.8194752980890371  1.0000
  Li  Li113     1.0  0.7479316130776692  0.035425955444268215  0.865169641640184  1.0000
  Li  Li114     1.0  0.5986253385001619  0.16865566056379125  0.6273698343522742  1.0000
  Li  Li115     1.0  0.8972429102156372  0.3630751097380385  0.6301514458762759  1.0000
  Li  Li116     1.0  0.9281614869250764  0.09933467459717314  0.7977589590614065  1.0000
  Li  Li117     1.0  0.5304423325195583  0.4664025324240332  0.7478706418517229  1.0000
  Li  Li118     1.0  0.5554111544237876  0.013830339674753656  0.9477953516084616  1.0000
  Li  Li119     1.0  0.8434754835928571  0.16846332259354138  0.8897625958096682  1.0000
  Li  Li120     1.0  0.6901155041337845  0.3214565772994704  0.9257705340901506  1.0000
  Ge  Ge11      1.0  0.8006332883992189  0.009466597011369185  0.5554512553362222  1.0000
  Ge  Ge12      1.0  0.5511413454195014  0.2280771494707371  0.9140782791527262  1.0000
  P   P21       1.0  0.8373472578795503  0.20000458286357423  0.4961341601743212  1.0000
  P   P22       1.0  0.8114590283367696  0.45117691425512546  0.7523075496764413  1.0000
  P   P23       1.0  0.7234265517728855  0.3072120358787749  0.7477593884549981  1.0000
  P   P24       1.0  0.5653904080023994  0.46374874331523125  0.6222460002033533  1.0000
  S   S121      1.0  0.6366642638123118  0.3317248124282944  0.6341599635806019  1.0000
  S   S122      1.0  0.6981814344191349  0.22764339572798004  0.5202842205355034  1.0000
  S   S123      1.0  0.6176592388793684  0.017549170863663626  0.8394990372950126  1.0000
  S   S124      1.0  0.9378950850302187  0.40601972389290125  0.7080233719788237  1.0000
  S   S125      1.0  0.5250226824591598  0.1459424703176631  0.990899243241663  1.0000
  S   S126      1.0  0.9017603398987127  0.46968365177806337  0.8364904968617255  1.0000
  S   S127      1.0  0.5463645239728309  0.11800620494597332  0.7240339790037738  1.0000
  S   S128      1.0  0.8392245095891377  0.24534086890158016  0.7762705199246662  1.0000
  S   S129      1.0  0.9545442009743057  0.21780111457221232  0.6153632142497866  1.0000
  S   S130      1.0  0.7076693947120243  0.45737758996778094  0.9508949219141845  1.0000
  S   S131      1.0  0.8436956682476435  0.37240824995135535  0.5462689819706632  1.0000
  S   S132      1.0  0.9945634341997188  0.17672824248128352  0.856571218351146  1.0000
  S   S133      1.0  0.7211321756388347  0.40176474981208393  0.8270992726269871  1.0000
  S   S134      1.0  0.7314196892968552  0.2269201804070863  0.6926379910294628  1.0000
  S   S135      1.0  0.5262796870416148  0.3579199256574275  0.9433352156283877  1.0000
  S   S136      1.0  0.867126606050422  0.07039662476515024  0.9701095736502287  1.0000
  S   S137      1.0  0.7391739151500133  0.4237265483797163  0.6951726772018657  1.0000
  S   S138      1.0  0.014533719148142055  0.4401524782207251  0.5626242152516244  1.0000
  S   S139      1.0  0.7923310243310511  0.07935318172329896  0.7563758049713195  1.0000
  S   S140      1.0  0.6986343403348945  0.1877223640398051  0.8801041056643961  1.0000
  S   S141      1.0  0.813287280115728  0.0760444638108707  0.6182589788939549  1.0000
  S   S142      1.0  0.6480179674664464  0.046386518268023404  0.5757947012861241  1.0000
  S   S143      1.0  0.8514745752008736  0.2853849658874552  0.925803691033575  1.0000
  S   S144      1.0  0.5933287067402813  0.31663200959775123  0.7889803166240306  1.0000
  Li  Li121     1.0  0.6946545230443311  0.8745229730443711  0.03328666657317163  1.0000
  Li  Li122     1.0  0.9562336868523453  0.5940385116079995  0.07941177561191196  1.0000
  Li  Li123     1.0  0.9064432120179996  0.6484655274483819  0.19479320021120783  1.0000
  Li  Li124     1.0  0.5437061000474545  0.7663310554850227  0.2164580902144342  1.0000
  Li  Li125     1.0  0.8067986979028797  0.7392018892638147  0.09569018554748285  1.0000
  Li  Li126     1.0  0.6995665224712001  0.578081718968919  0.19898229009873006  1.0000
  Li  Li127     1.0  0.6308015505194359  0.6557805563599133  0.28567160623141813  1.0000
  Li  Li128     1.0  0.6900910754972919  0.5997982675547037  0.47073869602593066  1.0000
  Li  Li129     1.0  0.8674609625360139  0.9254841545235879  0.4379833847694663  1.0000
  Li  Li130     1.0  0.01203045029597094  0.7794164019830164  0.03124364270225559  1.0000
  Li  Li131     1.0  0.5377091101706305  0.9163603680059592  0.3545910899722505  1.0000
  Li  Li132     1.0  0.9087876261695568  0.8298674846749894  0.3194752927706181  1.0000
  Li  Li133     1.0  0.7479316114070411  0.5354259559972508  0.36516963951421516  1.0000
  Li  Li134     1.0  0.5986253151944171  0.6686556679051532  0.12736984607061486  1.0000
  Li  Li135     1.0  0.8972429090044086  0.8630751022014087  0.13015144949567964  1.0000
  Li  Li136     1.0  0.9281614820258534  0.5993346765537533  0.29775895808144404  1.0000
  Li  Li137     1.0  0.5304423454086117  0.9664025359405054  0.24787063692567654  1.0000
  Li  Li138     1.0  0.555411143201452  0.5138303453130737  0.4477953518003592  1.0000
  Li  Li139     1.0  0.8434754778743999  0.668463321544701  0.3897625963658462  1.0000
  Li  Li140     1.0  0.6901154991405641  0.821456585104634  0.4257705378745528  1.0000
  Ge  Ge13      1.0  0.8006333005368271  0.5094665914681084  0.05545125638250419  1.0000
  Ge  Ge14      1.0  0.5511413492374667  0.7280771462542391  0.4140782786235563  1.0000
  P   P25       1.0  0.8373472612051486  0.700004581761009  0.9961341592708797  1.0000
  P   P26       1.0  0.811459023666844  0.9511768997628751  0.2523075485604894  1.0000
  P   P27       1.0  0.7234265412856496  0.8072120351232169  0.24775938703882447  1.0000
  P   P28       1.0  0.5653904208380163  0.9637487416960813  0.1222460127325056  1.0000
  S   S145      1.0  0.6366642569657871  0.8317248081708941  0.13415996478996076  1.0000
  S   S146      1.0  0.698181438705664  0.7276433939104827  0.020284215772801085  1.0000
  S   S147      1.0  0.6176592317197847  0.5175491728248788  0.33949903769791145  1.0000
  S   S148      1.0  0.9378950797727603  0.9060197067355674  0.20802337549098676  1.0000
  S   S149      1.0  0.525022683593432  0.6459424751462319  0.4908992388240996  1.0000
  S   S150      1.0  0.9017603363433605  0.96968365278982  0.33649049837338746  1.0000
  S   S151      1.0  0.5463645258025372  0.6180062030529506  0.22403398097444446  1.0000
  S   S152      1.0  0.8392245118030099  0.7453408689246571  0.27627051983342416  1.0000
  S   S153      1.0  0.9545441951977  0.7178011035643662  0.11536321791844446  1.0000
  S   S154      1.0  0.7076693928718588  0.9573775876972147  0.45089491975738044  1.0000
  S   S155      1.0  0.8436956723499327  0.8724082504735058  0.04626898532926276  1.0000
  S   S156      1.0  0.9945634260327739  0.6767282463947825  0.35657121517983265  1.0000
  S   S157      1.0  0.7211321657379094  0.9017647514537437  0.3270992783053549  1.0000
  S   S158      1.0  0.7314196834557258  0.7269201931795235  0.19263797736351748  1.0000
  S   S159      1.0  0.5262796882694528  0.8579199274959146  0.44333522017479643  1.0000
  S   S160      1.0  0.8671266013807111  0.5703966311665768  0.47010956790322156  1.0000
  S   S161      1.0  0.7391739046847098  0.9237265500758456  0.19517267308274588  1.0000
  S   S162      1.0  0.014533728296009407  0.9401524688259507  0.06262423367568733  1.0000
  S   S163      1.0  0.7923310187202114  0.5793531879379007  0.2563757991852652  1.0000
  S   S164      1.0  0.6986343355585615  0.6877223625617757  0.3801041060876269  1.0000
  S   S165      1.0  0.8132872882311003  0.576044454375147  0.11825897866884041  1.0000
  S   S166      1.0  0.648017955890059  0.5463865404323611  0.07579470567515757  1.0000
  S   S167      1.0  0.8514745728576762  0.7853849716970905  0.4258036862997733  1.0000
  S   S168      1.0  0.5933287110613966  0.8166320004892779  0.2889803118020046  1.0000
  Li  Li141     1.0  0.6946545212415873  0.8745229686387992  0.5332866648854612  1.0000
  Li  Li142     1.0  0.9562336813604805  0.5940385156047581  0.5794117722798237  1.0000
  Li  Li143     1.0  0.9064432143080178  0.6484655290341732  0.6947932052834574  1.0000
  Li  Li144     1.0  0.5437061095195695  0.7663310542063975  0.716458088805669  1.0000
  Li  Li145     1.0  0.8067986877519883  0.7392018915834585  0.5956901885227746  1.0000
  Li  Li146     1.0  0.6995665217506698  0.5780817144031181  0.698982291167307  1.0000
  Li  Li147     1.0  0.6308015555059854  0.6557805547954237  0.7856716097449361  1.0000
  Li  Li148     1.0  0.6900910786483967  0.599798270535441  0.9707386986301605  1.0000
  Li  Li149     1.0  0.8674609633822598  0.9254841580086789  0.9379833845032415  1.0000
  Li  Li150     1.0  0.012030453005387631  0.7794164042618689  0.531243642780467  1.0000
  Li  Li151     1.0  0.5377091082848422  0.9163603673385581  0.8545910927587319  1.0000
  Li  Li152     1.0  0.9087876270771851  0.8298674825395732  0.8194752947988404  1.0000
  Li  Li153     1.0  0.747931612190533  0.5354259523899653  0.865169641782614  1.0000
  Li  Li154     1.0  0.5986253351606168  0.6686556539572547  0.6273698395267395  1.0000
  Li  Li155     1.0  0.8972429109462481  0.8630751029766528  0.6301514481044258  1.0000
  Li  Li156     1.0  0.9281614786260162  0.5993346796584338  0.7977589583345711  1.0000
  Li  Li157     1.0  0.5304423445750992  0.9664025289136426  0.747870638457532  1.0000
  Li  Li158     1.0  0.5554111515165846  0.513830333239154  0.9477953611697044  1.0000
  Li  Li159     1.0  0.8434754854569136  0.6684633197504837  0.8897625986303115  1.0000
  Li  Li160     1.0  0.6901155013137033  0.8214565877076727  0.9257705367461003  1.0000
  Ge  Ge15      1.0  0.8006332967043035  0.5094665938231903  0.5554512594282404  1.0000
  Ge  Ge16      1.0  0.5511413497226637  0.7280771420515554  0.9140782760543703  1.0000
  P   P29       1.0  0.8373472674372752  0.7000045775897873  0.4961341601130941  1.0000
  P   P30       1.0  0.8114590242608576  0.9511769178531043  0.7523075460339824  1.0000
  P   P31       1.0  0.7234265507655242  0.8072120323030382  0.747759388554816  1.0000
  P   P32       1.0  0.565390426258499  0.9637487370603723  0.622246002070253  1.0000
  S   S169      1.0  0.6366642555393603  0.8317248174593969  0.6341599646072088  1.0000
  S   S170      1.0  0.6981814265460123  0.7276433914895128  0.5202842206781942  1.0000
  S   S171      1.0  0.6176592356104429  0.5175491686848221  0.8394990410146606  1.0000
  S   S172      1.0  0.9378950812680278  0.9060197152261719  0.7080233715191043  1.0000
  S   S173      1.0  0.5250226931672134  0.6459424811477039  0.9908992397982769  1.0000
  S   S174      1.0  0.9017603382508944  0.96968365904549  0.8364904965734131  1.0000
  S   S175      1.0  0.5463645205869967  0.6180062066820879  0.7240339811264156  1.0000
  S   S176      1.0  0.8392245063019756  0.7453408746427237  0.7762705201172393  1.0000
  S   S177      1.0  0.954544198860959  0.7178011060756198  0.6153632149177095  1.0000
  S   S178      1.0  0.7076694000866208  0.9573775850524089  0.9508949157669261  1.0000
  S   S179      1.0  0.8436956677734808  0.8724082507717049  0.5462689849314236  1.0000
  S   S180      1.0  0.99456343288912  0.6767282470624657  0.8565712164289413  1.0000
  S   S181      1.0  0.7211321733429835  0.9017647475742395  0.8270992728137548  1.0000
  S   S182      1.0  0.7314196897275366  0.7269201836390198  0.6926379856502647  1.0000
  S   S183      1.0  0.5262796901754274  0.8579199301081586  0.9433352205095954  1.0000
  S   S184      1.0  0.867126595997168  0.5703966246534683  0.9701095692569117  1.0000
  S   S185      1.0  0.7391739064958369  0.9237265535602349  0.6951726709438784  1.0000
  S   S186      1.0  0.01453372964471411  0.9401524672763664  0.5626242255970704  1.0000
  S   S187      1.0  0.7923310212668904  0.5793531886422275  0.7563758063320914  1.0000
  S   S188      1.0  0.698634341561036  0.6877223622556018  0.8801041060778118  1.0000
  S   S189      1.0  0.813287282050605  0.5760444583446851  0.6182589750197619  1.0000
  S   S190      1.0  0.6480179568893253  0.5463865251431109  0.5757946984998705  1.0000
  S   S191      1.0  0.8514745737413777  0.7853849738141795  0.9258036842863148  1.0000
  S   S192      1.0  0.5933287165470179  0.8166320052855583  0.788980318010251  1.0000
