data_image0
_chemical_formula_structural       Li20Ge2P4S24Li20Ge2P4S24
_chemical_formula_sum              "Li40 Ge4 P8 S48"
_cell_length_a       8.410601861321297
_cell_length_b       8.48648879029692
_cell_length_c       27.39460549599707
_cell_angle_alpha    80.19371436398144
_cell_angle_beta     74.56141809855772
_cell_angle_gamma    73.40294082677067

_space_group_name_H-M_alt    "P 1"
_space_group_IT_number       1

loop_
  _space_group_symop_operation_xyz
  'x, y, z'

loop_
  _atom_site_type_symbol
  _atom_site_label
  _atom_site_symmetry_multiplicity
  _atom_site_fract_x
  _atom_site_fract_y
  _atom_site_fract_z
  _atom_site_occupancy
  Li  Li1       1.0  0.37202390104570515  0.789204283836251  0.031682286164552355  1.0000
  Li  Li2       1.0  0.9068774294412945  0.21749101143736946  0.07069840973368018  1.0000
  Li  Li3       1.0  0.8280083519722291  0.32880086129675745  0.1957126229674177  1.0000
  Li  Li4       1.0  0.10521014612999378  0.5342672455948959  0.21632341509846897  1.0000
  Li  Li5       1.0  0.6215718757016583  0.5053359131155809  0.09846514631047552  1.0000
  Li  Li6       1.0  0.41537303936643805  0.14540575474104778  0.1873080759081605  1.0000
  Li  Li7       1.0  0.2647386380427121  0.2808848015779364  0.2854126654243819  1.0000
  Li  Li8       1.0  0.3223257711794978  0.16432297985834793  0.47176738695069165  1.0000
  Li  Li9       1.0  0.7172441103144105  0.8052031786092875  0.4451727600296433  1.0000
  Li  Li10      1.0  0.9773415126924323  0.5407550805188674  0.021981111181978073  1.0000
  Li  Li11      1.0  0.09329191694834078  0.8302853200473236  0.35401904003935997  1.0000
  Li  Li12      1.0  0.8315766659652939  0.746307099784237  0.32683156104008243  1.0000
  Li  Li13      1.0  0.5120483549204194  0.05715486589330338  0.37153808348542694  1.0000
  Li  Li14      1.0  0.1824477086178091  0.34923356214790313  0.12004662802882543  1.0000
  Li  Li15      1.0  0.8151265999699292  0.7343545107809092  0.12392319157876029  1.0000
  Li  Li16      1.0  0.9518181828782784  0.21637499043866482  0.2988283634076552  1.0000
  Li  Li17      1.0  0.11619359124250245  0.937098926740658  0.23439433683117836  1.0000
  Li  Li18      1.0  0.12119730399450909  0.9738025908428962  0.453875068345531  1.0000
  Li  Li19      1.0  0.7386703854221398  0.2563121489163031  0.3897745085110086  1.0000
  Li  Li20      1.0  0.3543336668922802  0.6225281188031995  0.438574795085076  1.0000
  Ge  Ge1       1.0  0.5714912803811523  0.022500365984858217  0.059756010389081446  1.0000
  Ge  Ge2       1.0  0.10377888905229515  0.4254817242336089  0.41010171235955434  1.0000
  P   P1        1.0  0.6028468729628906  0.39589069558575707  0.004895096288421405  1.0000
  P   P2        1.0  0.6336743090821617  0.9055018806113324  0.25153537170715606  1.0000
  P   P3        1.0  0.47383853001093207  0.5949048247033191  0.24050100492093882  1.0000
  P   P4        1.0  0.11376286826067111  0.9457797490873208  0.11545117332487605  1.0000
  S   S1        1.0  0.25051422061840833  0.7468231047072952  0.1523640289946028  1.0000
  S   S2        1.0  0.34997670212055787  0.49920731121810996  0.03825348631406186  1.0000
  S   S3        1.0  0.28248692782646323  0.002542151955052183  0.3367996749424101  1.0000
  S   S4        1.0  0.8850417162098451  0.798273058941313  0.23433354205993587  1.0000
  S   S5        1.0  0.01171373972781913  0.25898090038171145  0.4775800617858879  1.0000
  S   S6        1.0  0.8265635796253477  0.007690856890326447  0.3506400871349694  1.0000
  S   S7        1.0  0.11915827587224787  0.2397251488348649  0.21570926342471625  1.0000
  S   S8        1.0  0.66430247155587  0.4810268150820866  0.27505701584295933  1.0000
  S   S9        1.0  0.9057312699793159  0.4479272637252531  0.11028362471448358  1.0000
  S   S10       1.0  0.41524052846355897  0.8919798820027466  0.44700019795168405  1.0000
  S   S11       1.0  0.6665075173482791  0.7627322293452898  0.0470745666044416  1.0000
  S   S12       1.0  0.9818297745407728  0.4312535171217409  0.34543481787229896  1.0000
  S   S13       1.0  0.5002828153957131  0.812009993092701  0.321995041676431  1.0000
  S   S14       1.0  0.4685341217871184  0.4621692427396269  0.18581486370529435  1.0000
  S   S15       1.0  0.038006867802102204  0.6809449352106198  0.4369641982926982  1.0000
  S   S16       1.0  0.6155309371571789  0.16015017054504363  0.48201750717809383  1.0000
  S   S17       1.0  0.5275283856130639  0.8279277670489256  0.1984045765444347  1.0000
  S   S18       1.0  0.03390395511805444  0.8715432168746893  0.06095413512438554  1.0000
  S   S19       1.0  0.5849442006220196  0.15135501427897066  0.2457672443544587  1.0000
  S   S20       1.0  0.38305648787343943  0.3541722091058686  0.3903291876288143  1.0000
  S   S21       1.0  0.6394897500636005  0.13914260732282857  0.11277444024796818  1.0000
  S   S22       1.0  0.27991909518147196  0.10026259304356534  0.07199667234136013  1.0000
  S   S23       1.0  0.661448348876901  0.510551992598416  0.4331668860504409  1.0000
  S   S24       1.0  0.2316193389562547  0.6410434453051238  0.28372222285787974  1.0000
  Li  Li21      1.0  0.37202386992467174  0.789204226508583  0.5316822828953797  1.0000
  Li  Li22      1.0  0.9068772865085444  0.21749112671187595  0.5706984630501125  1.0000
  Li  Li23      1.0  0.8280085324189541  0.32880094172857016  0.695712645809378  1.0000
  Li  Li24      1.0  0.1052105076287238  0.534267308833983  0.7163233919883724  1.0000
  Li  Li25      1.0  0.6215716849562279  0.5053361127894868  0.598465166071243  1.0000
  Li  Li26      1.0  0.4153729683434213  0.14540571786719392  0.6873080611663868  1.0000
  Li  Li27      1.0  0.264738763031817  0.28088465790853595  0.7854126611738513  1.0000
  Li  Li28      1.0  0.3223257710647268  0.16432291841804325  0.9717674179285474  1.0000
  Li  Li29      1.0  0.7172441265980957  0.8052030520787136  0.9451728115258947  1.0000
  Li  Li30      1.0  0.9773414307245273  0.5407551071492391  0.5219811166887603  1.0000
  Li  Li31      1.0  0.09329204425186585  0.8302851771483405  0.8540190657410418  1.0000
  Li  Li32      1.0  0.8315767797255156  0.7463069255805759  0.8268315512009673  1.0000
  Li  Li33      1.0  0.5120484502162747  0.05715475324776859  0.8715380749534596  1.0000
  Li  Li34      1.0  0.1824475315509491  0.3492334803223161  0.6200466418209473  1.0000
  Li  Li35      1.0  0.815126744626308  0.734354580477134  0.6239231809996358  1.0000
  Li  Li36      1.0  0.9518182567710669  0.21637515345780778  0.7988283778710774  1.0000
  Li  Li37      1.0  0.11619288322205343  0.9370992475781438  0.7343945808302129  1.0000
  Li  Li38      1.0  0.12119764010741509  0.9738027055797317  0.953874784310056  1.0000
  Li  Li39      1.0  0.7386703042227355  0.2563121189903419  0.889774521652832  1.0000
  Li  Li40      1.0  0.3543337605189157  0.6225280558724599  0.9385747927811721  1.0000
  Ge  Ge3       1.0  0.5714910770309597  0.022500345375535514  0.5597560203402371  1.0000
  Ge  Ge4       1.0  0.10377900404605006  0.425481642303592  0.9101016995027725  1.0000
  P   P5        1.0  0.6028469200668611  0.39589062160605537  0.5048951041632695  1.0000
  P   P6        1.0  0.6336743457501058  0.9055017926419779  0.7515353499833859  1.0000
  P   P7        1.0  0.47383850288411494  0.5949047458149643  0.7405010390684542  1.0000
  P   P8        1.0  0.11376293983735744  0.9457795506302917  0.6154511487492745  1.0000
  S   S25       1.0  0.2505144029524967  0.7468230019472382  0.6523640138519651  1.0000
  S   S26       1.0  0.3499766979101979  0.49920720477302466  0.5382535124390382  1.0000
  S   S27       1.0  0.28248694736497343  0.002542121056237436  0.836799691429238  1.0000
  S   S28       1.0  0.8850416896007309  0.7982728987384  0.73433355341089  1.0000
  S   S29       1.0  0.011713759357564503  0.2589807598237526  0.9775800350823587  1.0000
  S   S30       1.0  0.8265638421220253  0.007690803312019989  0.8506400272498963  1.0000
  S   S31       1.0  0.11915830993974169  0.23972510070536357  0.7157092952365784  1.0000
  S   S32       1.0  0.6643024220077207  0.4810266807656485  0.7750570013046365  1.0000
  S   S33       1.0  0.9057311609771038  0.4479273237914996  0.6102836433563008  1.0000
  S   S34       1.0  0.4152406840603213  0.8919799439346628  0.9470002028307667  1.0000
  S   S35       1.0  0.6665074994341662  0.762732201290856  0.5470745433222349  1.0000
  S   S36       1.0  0.9818298958778835  0.43125351726060396  0.8454348179611837  1.0000
  S   S37       1.0  0.5002829226309652  0.8120100990960331  0.8219950117238022  1.0000
  S   S38       1.0  0.46853398971375726  0.4621692927234493  0.6858148701581439  1.0000
  S   S39       1.0  0.03800696543630339  0.6809449064864772  0.93696418631123  1.0000
  S   S40       1.0  0.6155308600370258  0.16015023647978327  0.9820175093578581  1.0000
  S   S41       1.0  0.5275283539816991  0.827927593394853  0.6984046114279859  1.0000
  S   S42       1.0  0.033903867081160666  0.8715433288282487  0.5609541302476265  1.0000
  S   S43       1.0  0.5849442699547789  0.15135496392571185  0.745767263769449  1.0000
  S   S44       1.0  0.3830566404357654  0.35417206190578604  0.8903292000791808  1.0000
  S   S45       1.0  0.6394897309714201  0.13914234011441573  0.612774479703541  1.0000
  S   S46       1.0  0.2799191064548877  0.10026252363683213  0.5719966409230183  1.0000
  S   S47       1.0  0.6614483681457769  0.5105519472473782  0.9331668786061563  1.0000
  S   S48       1.0  0.23161930626877297  0.6410435909806657  0.7837222518164385  1.0000
