data_image0
_chemical_formula_structural       Li20Ge2P4S24
_chemical_formula_sum              "Li20 Ge2 P4 S24"
_cell_length_a       8.950948696816882
_cell_length_b       8.305249072677324
_cell_length_c       15.182573477532474
_cell_angle_alpha    80.52663494846774
_cell_angle_beta     75.76454718910364
_cell_angle_gamma    75.7650210531848

_space_group_name_H-M_alt    "P 1"
_space_group_IT_number       1

loop_
  _space_group_symop_operation_xyz
  'x, y, z'

loop_
  _atom_site_type_symbol
  _atom_site_label
  _atom_site_symmetry_multiplicity
  _atom_site_fract_x
  _atom_site_fract_y
  _atom_site_fract_z
  _atom_site_occupancy
  Li  Li1       1.0  0.32335311704570935  0.7466770932924067  0.05412627321443093  1.0000
  Li  Li2       1.0  0.9312886100423636  0.20325922435611296  0.14494699580449005  1.0000
  Li  Li3       1.0  0.9296660543845129  0.37386718882027814  0.35654763905357995  1.0000
  Li  Li4       1.0  0.21472695314486615  0.569218722378948  0.401042590310392  1.0000
  Li  Li5       1.0  0.6575981968130876  0.527746603206499  0.21301562618540235  1.0000
  Li  Li6       1.0  0.4645244621583207  0.23876096825571164  0.36622594726836427  1.0000
  Li  Li7       1.0  0.2366530513291877  0.27422466717875954  0.5530816609980012  1.0000
  Li  Li8       1.0  0.3153058188024837  0.17743088781478739  0.9485254945412099  1.0000
  Li  Li9       1.0  0.6516691870652082  0.8035953130363704  0.8780310833428486  1.0000
  Li  Li10      1.0  0.9636893820812488  0.5365708038409999  0.032238184462314544  1.0000
  Li  Li11      1.0  0.9910277958576647  0.8786663187569214  0.7298586659694676  1.0000
  Li  Li12      1.0  0.6607645349203872  0.7265007275919322  0.6895112967056138  1.0000
  Li  Li13      1.0  0.4263954574657301  0.0491122998249912  0.7628398506129291  1.0000
  Li  Li14      1.0  0.21834649560551964  0.3930628274213176  0.21400320279526944  1.0000
  Li  Li15      1.0  0.8848520914116665  0.7375451269302903  0.20560104263230355  1.0000
  Li  Li16      1.0  0.6879241482831031  0.19542136798725182  0.6115139356549613  1.0000
  Li  Li17      1.0  0.24689840649211053  0.005872426910886741  0.3959923506971256  1.0000
  Li  Li18      1.0  0.11173762716213707  0.007001777770043754  0.8841418695197002  1.0000
  Li  Li19      1.0  0.7421355646853642  0.20895677782109492  0.8085086988380698  1.0000
  Li  Li20      1.0  0.34233884689276944  0.6231671702124014  0.8688374750043181  1.0000
  Ge  Ge1       1.0  0.5931521279907007  0.026785699351543193  0.1332534950287299  1.0000
  Ge  Ge2       1.0  0.0899840869426565  0.4188953144472779  0.8392880050594524  1.0000
  P   P1        1.0  0.5669868395156961  0.4098424873401102  0.9976698471351759  1.0000
  P   P2        1.0  0.551222020443824  0.8963934386105211  0.5538003750796845  1.0000
  P   P3        1.0  0.5432118200342372  0.5563993922153215  0.4886726305528252  1.0000
  P   P4        1.0  0.1989724229216313  0.8544533033974389  0.24207451832848229  1.0000
  S   S1        1.0  0.3497825724127144  0.6273879919320946  0.23210350381596415  1.0000
  S   S2        1.0  0.32232821509907755  0.46416067992747284  0.032395729523764336  1.0000
  S   S3        1.0  0.12498954133900822  0.11614561197031384  0.7095802294691858  1.0000
  S   S4        1.0  0.0581946298300593  0.8634152188784944  0.36815710673939506  1.0000
  S   S5        1.0  0.012026456127662968  0.2575559999557642  0.9660902524897569  1.0000
  S   S6        1.0  0.7245700810246726  0.9789106611624783  0.7326744068783657  1.0000
  S   S7        1.0  0.17875860477033936  0.295537893891761  0.4041135877591201  1.0000
  S   S8        1.0  0.7061565493138124  0.49158627514116193  0.5698563697164297  1.0000
  S   S9        1.0  0.9548273457145141  0.4475721630157892  0.1969092057460772  1.0000
  S   S10       1.0  0.36567016606768976  0.8939039488406273  0.9087431870434298  1.0000
  S   S11       1.0  0.7037075859009044  0.7737710676735722  0.10263786134397099  1.0000
  S   S12       1.0  0.9781232958636595  0.35044592432350463  0.7302342672419679  1.0000
  S   S13       1.0  0.38591091678428513  0.829217995508484  0.6615393457140823  1.0000
  S   S14       1.0  0.6388227826424996  0.4254233506181881  0.378122178092876  1.0000
  S   S15       1.0  0.009448165059277215  0.6870835350687436  0.8692218557963645  1.0000
  S   S16       1.0  0.5982111995367818  0.14604507372226358  0.984069471959442  1.0000
  S   S17       1.0  0.5284456296245066  0.815455513131709  0.4297272670402909  1.0000
  S   S18       1.0  0.07385549704048944  0.9080092906251818  0.14169622553684352  1.0000
  S   S19       1.0  0.5233200111431147  0.14753931353419555  0.5218606918366909  1.0000
  S   S20       1.0  0.34713611290510976  0.35987131933166366  0.7972702591549097  1.0000
  S   S21       1.0  0.658832442114156  0.17749733368195855  0.21562419840869512  1.0000
  S   S22       1.0  0.3262633743679361  0.05095398384705303  0.21529521661455697  1.0000
  S   S23       1.0  0.6439934494034882  0.500137883525011  0.8605305445075286  1.0000
  S   S24       1.0  0.3123436933115666  0.5575614732263469  0.5442123039194522  1.0000
