data_image0
_chemical_formula_structural       Li20Ge2P4S24Li20Ge2P4S24
_chemical_formula_sum              "Li40 Ge4 P8 S48"
_cell_length_a       8.692749098716003
_cell_length_b       8.519714596404462
_cell_length_c       28.42691562289582
_cell_angle_alpha    82.70715239420996
_cell_angle_beta     73.97817853097771
_cell_angle_gamma    75.74016652476486

_space_group_name_H-M_alt    "P 1"
_space_group_IT_number       1

loop_
  _space_group_symop_operation_xyz
  'x, y, z'

loop_
  _atom_site_type_symbol
  _atom_site_label
  _atom_site_symmetry_multiplicity
  _atom_site_fract_x
  _atom_site_fract_y
  _atom_site_fract_z
  _atom_site_occupancy
  Li  Li1       1.0  0.3720365906450895  0.7809812768068665  0.028925097227942606  1.0000
  Li  Li2       1.0  0.8573271341494039  0.20119461919372325  0.06943204814053597  1.0000
  Li  Li3       1.0  0.8285009855804308  0.3326140166032034  0.1947048050137211  1.0000
  Li  Li4       1.0  0.12265335734273365  0.47218876941931837  0.24670042576962184  1.0000
  Li  Li5       1.0  0.5991266443400025  0.4879843805997671  0.10154570654968341  1.0000
  Li  Li6       1.0  0.387222087875375  0.14837640471309924  0.19434189823576456  1.0000
  Li  Li7       1.0  0.4225474730817089  0.30220509839994475  0.3070143959431651  1.0000
  Li  Li8       1.0  0.3184985308735771  0.16298163909626562  0.46605398074658994  1.0000
  Li  Li9       1.0  0.7059735700411452  0.7922204637892095  0.4492266542860662  1.0000
  Li  Li10      1.0  0.0006951253674354341  0.4925926398213252  0.018019637720637725  1.0000
  Li  Li11      1.0  0.12468537164822631  0.8487648071126768  0.36104515416061933  1.0000
  Li  Li12      1.0  0.8778037219828869  0.727623709430872  0.33433716377993505  1.0000
  Li  Li13      1.0  0.5516689333834183  0.03929168394839622  0.3794897324977656  1.0000
  Li  Li14      1.0  0.13717003825535784  0.3339085577394109  0.12631663732357526  1.0000
  Li  Li15      1.0  0.7966037141557203  0.7222949119539179  0.11198700226155711  1.0000
  Li  Li16      1.0  0.005473131277762722  0.1566154816264194  0.3017256543101433  1.0000
  Li  Li17      1.0  0.09476849142502448  0.9378675633664286  0.21610127717652713  1.0000
  Li  Li18      1.0  0.12021182582148084  0.9485947513425972  0.46795771530433444  1.0000
  Li  Li19      1.0  0.8542704041733258  0.23085828582754578  0.4062912665218634  1.0000
  Li  Li20      1.0  0.3630841444285044  0.6184564330917494  0.43542037839091435  1.0000
  Ge  Ge1       1.0  0.5347763547971517  0.04015531601218512  0.05845065025768572  1.0000
  Ge  Ge2       1.0  0.12243713423909738  0.4204057375657924  0.40701749294767414  1.0000
  P   P1        1.0  0.5789886864993413  0.4076739817552349  0.003261817557161696  1.0000
  P   P2        1.0  0.6509353107273125  0.9009526892132765  0.24899169280736286  1.0000
  P   P3        1.0  0.4454502110829489  0.6227170617037335  0.23389597453638186  1.0000
  P   P4        1.0  0.10584348545280681  0.9686489648960502  0.10581689681283367  1.0000
  S   S1        1.0  0.2256892178510226  0.7875114727778962  0.14215759583217247  1.0000
  S   S2        1.0  0.33208405890246656  0.505036631590215  0.03027453369008725  1.0000
  S   S3        1.0  0.3061822194308803  0.04626404896738138  0.33140169507742434  1.0000
  S   S4        1.0  0.8788924220521773  0.7693794070469638  0.24527602682277017  1.0000
  S   S5        1.0  0.016357785130089102  0.2515153490648539  0.4684905823674858  1.0000
  S   S6        1.0  0.8473958031181181  0.9940550783294448  0.3649151890122925  1.0000
  S   S7        1.0  0.09260769011737419  0.22855620455514228  0.21397730923486544  1.0000
  S   S8        1.0  0.6117090626839828  0.49158304850650886  0.2692945840677162  1.0000
  S   S9        1.0  0.8800404195436377  0.4358870666741658  0.10576901770161039  1.0000
  S   S10       1.0  0.4063601967177582  0.8869197404211827  0.44614213951521087  1.0000
  S   S11       1.0  0.6356417460821704  0.7799070508759631  0.04797190721428126  1.0000
  S   S12       1.0  0.020494302585287727  0.41383256238308325  0.34297785922075563  1.0000
  S   S13       1.0  0.5058639300252988  0.850178128359152  0.3194190600634629  1.0000
  S   S14       1.0  0.40666174214128603  0.49342037048351856  0.1843496796308104  1.0000
  S   S15       1.0  0.048087142881866725  0.6667275621211648  0.4384180152260398  1.0000
  S   S16       1.0  0.601896459314726  0.16518182795822176  0.4828842600766494  1.0000
  S   S17       1.0  0.5497176595103933  0.8252155733837854  0.19503996050076988  1.0000
  S   S18       1.0  0.9891940062207369  0.9010078371372597  0.06055575424224383  1.0000
  S   S19       1.0  0.6215696133980383  0.1399542517939624  0.2324056517799107  1.0000
  S   S20       1.0  0.3930021035886486  0.3533693964423699  0.3923871633243597  1.0000
  S   S21       1.0  0.5791828584285031  0.16977502390149413  0.11216963395601047  1.0000
  S   S22       1.0  0.2566983620279102  0.12342583915475516  0.06260406693812176  1.0000
  S   S23       1.0  0.6667970173973268  0.5061598567293855  0.43478903912558414  1.0000
  S   S24       1.0  0.21926511274291624  0.7215845628052425  0.2752654649758712  1.0000
  Li  Li21      1.0  0.37203652997401887  0.7809813176506434  0.5289251079236165  1.0000
  Li  Li22      1.0  0.8573271977206685  0.20119454837554743  0.5694320287581143  1.0000
  Li  Li23      1.0  0.8285010315036797  0.3326139602399318  0.6947047931467782  1.0000
  Li  Li24      1.0  0.12265335226413807  0.47218879472408887  0.7467004155295355  1.0000
  Li  Li25      1.0  0.5991267200327841  0.4879843384004628  0.6015457020963467  1.0000
  Li  Li26      1.0  0.3872221119153292  0.14837641925362494  0.6943418924076572  1.0000
  Li  Li27      1.0  0.42254740986387035  0.3022051254404729  0.8070143981454121  1.0000
  Li  Li28      1.0  0.31849848133478553  0.16298170481954868  0.9660539771109017  1.0000
  Li  Li29      1.0  0.705973557823306  0.7922205468009895  0.9492266375817766  1.0000
  Li  Li30      1.0  0.0006952168238878453  0.4925925926231479  0.5180196401473576  1.0000
  Li  Li31      1.0  0.1246853233428007  0.8487648383343037  0.8610451551953215  1.0000
  Li  Li32      1.0  0.8778036805734906  0.7276237339799811  0.8343371686497045  1.0000
  Li  Li33      1.0  0.551668891795376  0.039291719540376815  0.8794897267423093  1.0000
  Li  Li34      1.0  0.13717008861118946  0.33390852045618785  0.6263166240998814  1.0000
  Li  Li35      1.0  0.7966038086809659  0.7222948733506659  0.6119869810488163  1.0000
  Li  Li36      1.0  0.005473091528117591  0.15661549904701905  0.8017256483817995  1.0000
  Li  Li37      1.0  0.09476854242019292  0.9378675567683707  0.7161012868017669  1.0000
  Li  Li38      1.0  0.12021178888161382  0.9485947847995425  0.9679577189867855  1.0000
  Li  Li39      1.0  0.85427036219051  0.23085831926995826  0.9062912721650729  1.0000
  Li  Li40      1.0  0.36308410772962385  0.6184564729562085  0.9354203811948825  1.0000
  Ge  Ge3       1.0  0.5347763590657371  0.04015528963096043  0.5584506563496003  1.0000
  Ge  Ge4       1.0  0.12243710606608167  0.42040575488481147  0.9070174887929952  1.0000
  P   P5        1.0  0.5789887556533575  0.40767390123019415  0.503261818364869  1.0000
  P   P6        1.0  0.6509352593556447  0.9009527737746772  0.7489916931405259  1.0000
  P   P7        1.0  0.44545023568183817  0.6227170493629696  0.7338959635352411  1.0000
  P   P8        1.0  0.10584348983432186  0.9686489441512259  0.6058168463119905  1.0000
  S   S25       1.0  0.22568925205678791  0.7875114274913912  0.642157633629782  1.0000
  S   S26       1.0  0.33208409025826013  0.5050365902879385  0.5302745347843879  1.0000
  S   S27       1.0  0.30618220768638743  0.04626403783265162  0.8314016967215747  1.0000
  S   S28       1.0  0.8788924276555731  0.769379419935927  0.7452760321743264  1.0000
  S   S29       1.0  0.016357715224350144  0.25151539469456974  0.9684905892306938  1.0000
  S   S30       1.0  0.8473957701585714  0.9940550913057641  0.8649151959202501  1.0000
  S   S31       1.0  0.09260773546435215  0.22855618432764443  0.7139772982856353  1.0000
  S   S32       1.0  0.6117090828818965  0.4915830402511347  0.7692945671112505  1.0000
  S   S33       1.0  0.8800404697782545  0.43588701175331934  0.6057690094443189  1.0000
  S   S34       1.0  0.40636016131880937  0.886919790755522  0.9461421339539761  1.0000
  S   S35       1.0  0.6356417426151508  0.7799069661152254  0.5479719092999917  1.0000
  S   S36       1.0  0.02049425733775534  0.41383259023675073  0.8429778671218487  1.0000
  S   S37       1.0  0.5058638991659999  0.8501781399815734  0.8194190577891564  1.0000
  S   S38       1.0  0.4066617697150662  0.49342039437797397  0.6843496678989431  1.0000
  S   S39       1.0  0.0480871264857273  0.6667276119337591  0.9384180153929491  1.0000
  S   S40       1.0  0.6018964375150412  0.16518187820401853  0.9828842570562196  1.0000
  S   S41       1.0  0.5497176753188816  0.8252155817339649  0.6950399579760236  1.0000
  S   S42       1.0  0.9891940161822521  0.9010078644881424  0.5605557769810144  1.0000
  S   S43       1.0  0.6215696210386094  0.1399541873425638  0.7324056581349324  1.0000
  S   S44       1.0  0.39300205654031145  0.3533694511873627  0.8923871580234453  1.0000
  S   S45       1.0  0.5791829177734704  0.16977493808299393  0.6121696321801334  1.0000
  S   S46       1.0  0.25669838939661815  0.1234258126460735  0.5626040745710124  1.0000
  S   S47       1.0  0.666796977003356  0.5061599381582618  0.9347890387864273  1.0000
  S   S48       1.0  0.2192651335898853  0.7215845278050806  0.7752654588539216  1.0000
