data_image0
_chemical_formula_structural       Li20Ge2P4S24Li20Ge2P4S24Li20Ge2P4S24Li20Ge2P4S24Li20Ge2P4S24Li20Ge2P4S24Li20Ge2P4S24Li20Ge2P4S24
_chemical_formula_sum              "Li160 Ge16 P32 S192"
_cell_length_a       17.497236004761728
_cell_length_b       17.03498628587363
_cell_length_c       28.364663010086154
_cell_angle_alpha    82.86580606706761
_cell_angle_beta     73.22037325691267
_cell_angle_gamma    75.60994799576665

_space_group_name_H-M_alt    "P 1"
_space_group_IT_number       1

loop_
  _space_group_symop_operation_xyz
  'x, y, z'

loop_
  _atom_site_type_symbol
  _atom_site_label
  _atom_site_symmetry_multiplicity
  _atom_site_fract_x
  _atom_site_fract_y
  _atom_site_fract_z
  _atom_site_occupancy
  Li  Li1       1.0  0.19161206555080068  0.3899817952601943  0.029039289668935684  1.0000
  Li  Li2       1.0  0.4266543685744576  0.10113050283281906  0.0716484418097897  1.0000
  Li  Li3       1.0  0.41015575919759584  0.16788462787205458  0.19680347770192297  1.0000
  Li  Li4       1.0  0.05931770785479639  0.23458910673393985  0.2453492026423853  1.0000
  Li  Li5       1.0  0.29759817227506086  0.2456858200537999  0.10235869619414174  1.0000
  Li  Li6       1.0  0.1907577542268616  0.07155338431834381  0.19489381036984285  1.0000
  Li  Li7       1.0  0.1988042169220026  0.15458715440984133  0.3090021408698464  1.0000
  Li  Li8       1.0  0.16198175377705748  0.08085918324760889  0.46650697113723766  1.0000
  Li  Li9       1.0  0.357317209950492  0.39929980119659375  0.44481366322271854  1.0000
  Li  Li10      1.0  0.49691041355716603  0.2474171133434703  0.018698713984335157  1.0000
  Li  Li11      1.0  0.06324140207547356  0.42210133704267994  0.36205440288099466  1.0000
  Li  Li12      1.0  0.4476644886436719  0.3613004053341116  0.330849855025934  1.0000
  Li  Li13      1.0  0.27797504598858824  0.020636535734811768  0.3785137268975385  1.0000
  Li  Li14      1.0  0.06544211021001844  0.16600960637804069  0.12681657223562473  1.0000
  Li  Li15      1.0  0.3971314878256158  0.36258876344151847  0.11320272751111235  1.0000
  Li  Li16      1.0  0.5085767607510685  0.06965222105084833  0.30112134562128356  1.0000
  Li  Li17      1.0  0.04195381704797209  0.46935342779377565  0.21379361103091932  1.0000
  Li  Li18      1.0  0.06389295782378365  0.9734437112387134  0.46898145942581104  1.0000
  Li  Li19      1.0  0.4318291325998911  0.11268715503302451  0.4061159049362004  1.0000
  Li  Li20      1.0  0.1858434805905489  0.3085464740323123  0.435308218165934  1.0000
  Ge  Ge1       1.0  0.2684788077306478  0.02134166645976746  0.05812301647510279  1.0000
  Ge  Ge2       1.0  0.06608029696674872  0.2084005320099489  0.4079236942094973  1.0000
  P   P1        1.0  0.2932576193191219  0.20440931054857928  0.0014753395913179137  1.0000
  P   P2        1.0  0.3218091953749135  0.4507429888349331  0.24918341795316545  1.0000
  P   P3        1.0  0.2163406594009469  0.3141440862638215  0.2347348012552219  1.0000
  P   P4        1.0  0.053122728686116005  0.48528973290916955  0.10538459827202011  1.0000
  S   S1        1.0  0.11299050647491803  0.3931061625841825  0.1402572035494049  1.0000
  S   S2        1.0  0.17022433932440106  0.25325304589897335  0.029230107255248217  1.0000
  S   S3        1.0  0.1493840413062683  0.023893559686701486  0.3331040613600683  1.0000
  S   S4        1.0  0.435655804397737  0.38361941869404786  0.2432776365418272  1.0000
  S   S5        1.0  0.010231223339725383  0.12514259106489486  0.46896915755612034  1.0000
  S   S6        1.0  0.4250161430181272  0.49351733088047717  0.3656152264161576  1.0000
  S   S7        1.0  0.0430374100392423  0.11342406258220891  0.21403871840985686  1.0000
  S   S8        1.0  0.29585933918736934  0.2482035352177993  0.27155090747933974  1.0000
  S   S9        1.0  0.437523391172536  0.2190929606470343  0.10717935056781648  1.0000
  S   S10       1.0  0.20645477349216815  0.4430005267107867  0.44605352028711337  1.0000
  S   S11       1.0  0.3207193927881273  0.3911743118717873  0.04769980311466617  1.0000
  S   S12       1.0  0.5222271665655138  0.2006884056418718  0.34158523465840884  1.0000
  S   S13       1.0  0.2502217547747652  0.4263248010806482  0.32071663001559875  1.0000
  S   S14       1.0  0.1988939187121551  0.24725419211487373  0.18552786979404517  1.0000
  S   S15       1.0  0.02765552343813446  0.33204385300185557  0.43892856523901713  1.0000
  S   S16       1.0  0.304479540400253  0.08252142944947352  0.4820366716015027  1.0000
  S   S17       1.0  0.27150624921817673  0.41316308190134365  0.19516263446576496  1.0000
  S   S18       1.0  0.4928199909757196  0.45323288826834734  0.06111057222234795  1.0000
  S   S19       1.0  0.3069221812482265  0.07029111556306405  0.23327671074145054  1.0000
  S   S20       1.0  0.20086238021770464  0.1748016464313384  0.3930811761686839  1.0000
  S   S21       1.0  0.28678861955542145  0.08742927055950805  0.11265986527907976  1.0000
  S   S22       1.0  0.12963806036787298  0.061908780079999635  0.06197517067143792  1.0000
  S   S23       1.0  0.3387665731623174  0.25211359212131684  0.43241107363731407  1.0000
  S   S24       1.0  0.10344793088458827  0.3694728800129445  0.27486351233688183  1.0000
  Li  Li21      1.0  0.1916118799495911  0.38998208933549205  0.5290391495205448  1.0000
  Li  Li22      1.0  0.42665408227218027  0.10113083818029257  0.5716485685838155  1.0000
  Li  Li23      1.0  0.41015575381208824  0.16788469195239894  0.6968035424123051  1.0000
  Li  Li24      1.0  0.059317708313205555  0.2345890527361095  0.7453491730514782  1.0000
  Li  Li25      1.0  0.29759821212562343  0.24568571304359088  0.6023587503066844  1.0000
  Li  Li26      1.0  0.19075784351203362  0.07155350033021049  0.6948938351064422  1.0000
  Li  Li27      1.0  0.19880425345782204  0.1545871793568111  0.8090021626836881  1.0000
  Li  Li28      1.0  0.16198176175040216  0.08085918359105615  0.9665068753271256  1.0000
  Li  Li29      1.0  0.3573172785787449  0.39929975199027723  0.9448136685146303  1.0000
  Li  Li30      1.0  0.4969103954332398  0.24741712246516295  0.5186987121130915  1.0000
  Li  Li31      1.0  0.06324149502449558  0.4221013731087343  0.862054395902024  1.0000
  Li  Li32      1.0  0.44766433781029086  0.36130052564565474  0.8308496559288944  1.0000
  Li  Li33      1.0  0.2779750954283072  0.02063653780797316  0.8785137009852708  1.0000
  Li  Li34      1.0  0.06544217027780592  0.16600948073587837  0.6268164129647149  1.0000
  Li  Li35      1.0  0.39713141150323644  0.3625886938540256  0.6132028251134932  1.0000
  Li  Li36      1.0  0.5085767217858577  0.06965222787979099  0.8011212962407037  1.0000
  Li  Li37      1.0  0.04195325916188569  0.46935370552745564  0.713794046053915  1.0000
  Li  Li38      1.0  0.06389306581851434  0.973443714715073  0.96898123192048  1.0000
  Li  Li39      1.0  0.4318291650659496  0.11268715760956638  0.9061159226170385  1.0000
  Li  Li40      1.0  0.18584350946296765  0.30854645527302416  0.9353082454405574  1.0000
  Ge  Ge3       1.0  0.26847657853953555  0.021343391955972728  0.5581227919575723  1.0000
  Ge  Ge4       1.0  0.0660805426910817  0.20840066826967282  0.9079234434337535  1.0000
  P   P5        1.0  0.2932578197767214  0.20440920430677148  0.5014754301475243  1.0000
  P   P6        1.0  0.3218269903011012  0.45072775734097303  0.7491853951027329  1.0000
  P   P7        1.0  0.21634239851021403  0.3141426930273206  0.7347356493514516  1.0000
  P   P8        1.0  0.05311932306323691  0.4852930088290495  0.6053791773741828  1.0000
  S   S25       1.0  0.11299333893431072  0.39310230379298583  0.6402592265763853  1.0000
  S   S26       1.0  0.1702242148322178  0.25325319254410705  0.5292301656080466  1.0000
  S   S27       1.0  0.149384059050621  0.023893468534738897  0.8331041432572371  1.0000
  S   S28       1.0  0.4356396872319911  0.3836289279891929  0.7432781715539126  1.0000
  S   S29       1.0  0.010231135002019094  0.1251424000834932  0.9689693039602747  1.0000
  S   S30       1.0  0.4250160673553916  0.4935174528992238  0.8656152568463221  1.0000
  S   S31       1.0  0.04303776648041424  0.11342362063711513  0.7140384710171231  1.0000
  S   S32       1.0  0.29585799782734884  0.24820499537982904  0.7715501935908882  1.0000
  S   S33       1.0  0.4375233780517282  0.21909286049454357  0.6071792737724236  1.0000
  S   S34       1.0  0.2064546658956107  0.44300060026699156  0.9460534994508107  1.0000
  S   S35       1.0  0.32071927548362794  0.3911740021479247  0.5476999716658775  1.0000
  S   S36       1.0  0.5222272122121026  0.20068829996672763  0.8415853045502097  1.0000
  S   S37       1.0  0.2502219460971035  0.4263258343705989  0.820715625643555  1.0000
  S   S38       1.0  0.19889408666701977  0.24725351684894983  0.6855278604397697  1.0000
  S   S39       1.0  0.027655465603043557  0.33204390648361715  0.9389286397279206  1.0000
  S   S40       1.0  0.304479544034187  0.08252152918604373  0.9820366179793317  1.0000
  S   S41       1.0  0.2715056129818705  0.4131633273682879  0.6951622778493751  1.0000
  S   S42       1.0  0.49281915272770016  0.45323249563020984  0.561109602941352  1.0000
  S   S43       1.0  0.3069219254397662  0.07029149443550012  0.7332766178498774  1.0000
  S   S44       1.0  0.20086216050514702  0.17480167809817365  0.8930812407274327  1.0000
  S   S45       1.0  0.28678901242685517  0.087429147038916  0.6126600169051835  1.0000
  S   S46       1.0  0.12963724254379472  0.06190712955995774  0.5619770926289002  1.0000
  S   S47       1.0  0.33876650432580885  0.2521136485920685  0.9324111684101746  1.0000
  S   S48       1.0  0.10344800914938906  0.3694731892115616  0.7748632970665476  1.0000
  Li  Li41      1.0  0.19161228491866542  0.8899813520768356  0.029039460905830074  1.0000
  Li  Li42      1.0  0.42665425077515634  0.6011306842401303  0.07164855066288099  1.0000
  Li  Li43      1.0  0.4101557990299017  0.6678845916219698  0.19680354506643902  1.0000
  Li  Li44      1.0  0.059317257426485935  0.7345892306166025  0.24534919836145028  1.0000
  Li  Li45      1.0  0.2975979865860331  0.745685960275753  0.10235870625228671  1.0000
  Li  Li46      1.0  0.19075770257399682  0.571553523358883  0.19489379628866296  1.0000
  Li  Li47      1.0  0.19880417948228676  0.6545871389439663  0.30900209672689205  1.0000
  Li  Li48      1.0  0.16198178749706957  0.5808591432789102  0.46650693487434897  1.0000
  Li  Li49      1.0  0.3573171464104713  0.8992998135378998  0.4448136739215177  1.0000
  Li  Li50      1.0  0.4969103048899002  0.7474172073727283  0.018698782146136232  1.0000
  Li  Li51      1.0  0.06324147396514312  0.9221013056718463  0.36205435050832724  1.0000
  Li  Li52      1.0  0.4476642546563392  0.8613004445064406  0.330849822200522  1.0000
  Li  Li53      1.0  0.2779751567855745  0.5206365949190546  0.37851373718343595  1.0000
  Li  Li54      1.0  0.0654422077518772  0.666009591010937  0.1268164874836112  1.0000
  Li  Li55      1.0  0.39713133364517444  0.862588829116209  0.11320276973820968  1.0000
  Li  Li56      1.0  0.5085768322002031  0.5696522458867129  0.30112131773206763  1.0000
  Li  Li57      1.0  0.04195399011981237  0.9693526287804429  0.21379322362438005  1.0000
  Li  Li58      1.0  0.06389302560367448  0.4734436622468442  0.46898144477133735  1.0000
  Li  Li59      1.0  0.43182912238666743  0.6126871950325845  0.40611592649016126  1.0000
  Li  Li60      1.0  0.18584342877946794  0.8085464801211675  0.43530820676611776  1.0000
  Ge  Ge5       1.0  0.26847764974759963  0.5213428041296772  0.05812302445083638  1.0000
  Ge  Ge6       1.0  0.0660801429577196  0.7084005311812278  0.40792340968994956  1.0000
  P   P9        1.0  0.29325718792035316  0.7044094869314503  0.0014755041270342103  1.0000
  P   P10       1.0  0.32181412478490756  0.9507395967794797  0.24918367567594413  1.0000
  P   P11       1.0  0.21633979898749667  0.8141451742526818  0.23473551162860373  1.0000
  P   P12       1.0  0.05312353326612194  0.985289865314839  0.10538949583832058  1.0000
  S   S49       1.0  0.11299035139589113  0.8931070356947006  0.1402558524660578  1.0000
  S   S50       1.0  0.17022457901266602  0.7532527490076507  0.029230026852289304  1.0000
  S   S51       1.0  0.14938365606022527  0.5238937374606397  0.333104083383162  1.0000
  S   S52       1.0  0.43565106314008034  0.8836220824388517  0.24327784573994907  1.0000
  S   S53       1.0  0.010231223892651015  0.6251424800970646  0.46896919797079645  1.0000
  S   S54       1.0  0.42501610384673655  0.993517316403735  0.36561517396359755  1.0000
  S   S55       1.0  0.04303788746289055  0.6134234155375322  0.21403852122341194  1.0000
  S   S56       1.0  0.2958593530869624  0.7482036871719265  0.27155087574830655  1.0000
  S   S57       1.0  0.43752342372942427  0.7190927802538298  0.1071794153410404  1.0000
  S   S58       1.0  0.20645468758942195  0.9430005871836882  0.44605354568233474  1.0000
  S   S59       1.0  0.32071949374738307  0.8911746999674504  0.04769963334353786  1.0000
  S   S60       1.0  0.522227071804224  0.7006884984045093  0.3415852460247741  1.0000
  S   S61       1.0  0.25022174565541017  0.9263251946939758  0.32071629346498987  1.0000
  S   S62       1.0  0.19889349208357437  0.7472547344417741  0.18552737855648263  1.0000
  S   S63       1.0  0.027655490942864104  0.8320438844514334  0.43892858899311515  1.0000
  S   S64       1.0  0.30447952994495986  0.5825214458432387  0.48203670796201653  1.0000
  S   S65       1.0  0.2715063127355015  0.913163197366221  0.19516272954529504  1.0000
  S   S66       1.0  0.49282098791427975  0.9532325143907542  0.061111056975221525  1.0000
  S   S67       1.0  0.30692232307859835  0.570290819780432  0.2332769007426827  1.0000
  S   S68       1.0  0.20086249210945342  0.6748016135100886  0.3930811772390494  1.0000
  S   S69       1.0  0.28678872010848594  0.5874290193920506  0.11265981897228838  1.0000
  S   S70       1.0  0.12963755276400862  0.5619077889975265  0.06197616577577704  1.0000
  S   S71       1.0  0.33876647611005256  0.7521136292068733  0.43241111552163464  1.0000
  S   S72       1.0  0.10344923809991823  0.869472362005538  0.2748634651193709  1.0000
  Li  Li61      1.0  0.19161180506640696  0.8899820520583032  0.5290391758230734  1.0000
  Li  Li62      1.0  0.4266541332387654  0.6011307630325171  0.5716485758924138  1.0000
  Li  Li63      1.0  0.41015580019546255  0.6678848948434051  0.6968035349046652  1.0000
  Li  Li64      1.0  0.059317716111246664  0.7345889384240081  0.7453491799478453  1.0000
  Li  Li65      1.0  0.2975981747552196  0.7456857976191166  0.6023587998548818  1.0000
  Li  Li66      1.0  0.19075774019981054  0.5715534417536752  0.6948937884768833  1.0000
  Li  Li67      1.0  0.19880406727195793  0.6545872408577512  0.8090022405305961  1.0000
  Li  Li68      1.0  0.16198178723226322  0.5808591389198875  0.9665068933378597  1.0000
  Li  Li69      1.0  0.3573171471603925  0.8992997433355988  0.9448137432457607  1.0000
  Li  Li70      1.0  0.49691029963059213  0.7474171855899164  0.5186987285413939  1.0000
  Li  Li71      1.0  0.06324154260384261  0.9221013690387921  0.8620544378948739  1.0000
  Li  Li72      1.0  0.4476642543470522  0.8613004881499632  0.8308498224949287  1.0000
  Li  Li73      1.0  0.277975169066645  0.5206364660647061  0.8785137138176942  1.0000
  Li  Li74      1.0  0.06544224149795368  0.6660094127340096  0.6268163628283606  1.0000
  Li  Li75      1.0  0.39713128920279467  0.8625887488586872  0.6132028443884385  1.0000
  Li  Li76      1.0  0.5085768578629214  0.5696521685697531  0.8011213410434356  1.0000
  Li  Li77      1.0  0.041953525553982844  0.9693538452575116  0.7137939506932053  1.0000
  Li  Li78      1.0  0.06389309267226022  0.47344363578337684  0.9689813332883878  1.0000
  Li  Li79      1.0  0.4318291373645431  0.6126871922223069  0.9061159327833884  1.0000
  Li  Li80      1.0  0.18584344150964463  0.8085464886841759  0.9353082512409763  1.0000
  Ge  Ge7       1.0  0.26847650190745725  0.5213432956674467  0.5581226450769667  1.0000
  Ge  Ge8       1.0  0.06608049165026789  0.7084004086942446  0.9079236142314921  1.0000
  P   P13       1.0  0.29325778034059924  0.7044092751879111  0.5014753935765094  1.0000
  P   P14       1.0  0.3218190898783156  0.9507365629196537  0.7491841985253641  1.0000
  P   P15       1.0  0.21634164239339174  0.8141435355062077  0.7347348861923283  1.0000
  P   P16       1.0  0.053119789920373875  0.9852925464807325  0.6053797835807231  1.0000
  S   S73       1.0  0.11299289081039703  0.8931029854019968  0.6402590234105363  1.0000
  S   S74       1.0  0.17022411321232914  0.7532531765840978  0.5292301346393883  1.0000
  S   S75       1.0  0.1493841067458659  0.5238933728496231  0.83310415689282  1.0000
  S   S76       1.0  0.4356464107351812  0.8836247331145654  0.7432780330079389  1.0000
  S   S77       1.0  0.010231257135246238  0.6251424235259135  0.9689691658663957  1.0000
  S   S78       1.0  0.425016003496773  0.9935173484714724  0.8656152295277347  1.0000
  S   S79       1.0  0.04303759460318705  0.6134236137532125  0.714038439406218  1.0000
  S   S80       1.0  0.29585885183850774  0.7482040250474531  0.7715507084976343  1.0000
  S   S81       1.0  0.43752332045702996  0.7190928634196018  0.6071793711541711  1.0000
  S   S82       1.0  0.20645451826126895  0.9430007093692669  0.946053457621796  1.0000
  S   S83       1.0  0.3207192688021902  0.8911739035155992  0.547699979278122  1.0000
  S   S84       1.0  0.5222271191358034  0.7006883802161619  0.8415852687464979  1.0000
  S   S85       1.0  0.2502219092542848  0.9263253281107452  0.8207160864389155  1.0000
  S   S86       1.0  0.19889406066978402  0.7472535183326303  0.685528085412486  1.0000
  S   S87       1.0  0.027655471417309785  0.8320438356736221  0.9389286017013884  1.0000
  S   S88       1.0  0.3044796444382022  0.5825214850600031  0.9820365568881548  1.0000
  S   S89       1.0  0.27150576513060326  0.9131630881344666  0.6951625621300684  1.0000
  S   S90       1.0  0.4928187488556704  0.9532319488556786  0.5611088252708599  1.0000
  S   S91       1.0  0.3069211973065068  0.5702956845171984  0.7332757080558487  1.0000
  S   S92       1.0  0.20086229841465292  0.67480165114297  0.8930811606733677  1.0000
  S   S93       1.0  0.28678893104810116  0.5874293457797124  0.6126601901844956  1.0000
  S   S94       1.0  0.1296372440720256  0.5619069785481634  0.5619771601095706  1.0000
  S   S95       1.0  0.3387665065793745  0.752113744907788  0.9324111137929453  1.0000
  S   S96       1.0  0.10344777784195813  0.8694733272369047  0.7748634169082561  1.0000
  Li  Li81      1.0  0.6916117814487369  0.38998206212324626  0.029039125741346  1.0000
  Li  Li82      1.0  0.9266536660555512  0.10113130798137289  0.07164869616435326  1.0000
  Li  Li83      1.0  0.9101558786713262  0.16788491069527228  0.19680349384376014  1.0000
  Li  Li84      1.0  0.5593177460445863  0.23458894775187922  0.24534918581440893  1.0000
  Li  Li85      1.0  0.7975980718640528  0.24568589878418817  0.10235879889010606  1.0000
  Li  Li86      1.0  0.690757448193906  0.07155382012863656  0.1948936387679437  1.0000
  Li  Li87      1.0  0.6988038935011038  0.15458736966301767  0.30900229708652427  1.0000
  Li  Li88      1.0  0.6619817955822678  0.0808591448611789  0.46650692283877443  1.0000
  Li  Li89      1.0  0.85731716200381  0.3992998073144453  0.44481369355641154  1.0000
  Li  Li90      1.0  0.9969103186940986  0.2474173510704764  0.018698695689076592  1.0000
  Li  Li91      1.0  0.5632415128597686  0.42210138212153786  0.36205443636872897  1.0000
  Li  Li92      1.0  0.9476643328609317  0.3613004613040239  0.3308498003595189  1.0000
  Li  Li93      1.0  0.7779751859150514  0.020636506170941725  0.37851375236100776  1.0000
  Li  Li94      1.0  0.5654421178462444  0.16600951801027625  0.1268163493213738  1.0000
  Li  Li95      1.0  0.897131195593328  0.3625888862936459  0.11320284350591554  1.0000
  Li  Li96      1.0  0.008576856139203448  0.06965229838554897  0.3011213763186704  1.0000
  Li  Li97      1.0  0.5419535419244629  0.4693539272691529  0.21379397181950563  1.0000
  Li  Li98      1.0  0.5638930896537049  0.9734436500493177  0.4689813667504592  1.0000
  Li  Li99      1.0  0.9318291589185163  0.1126871758572387  0.40611587398849575  1.0000
  Li  Li100     1.0  0.6858434594317014  0.3085464893010045  0.4353082246517176  1.0000
  Ge  Ge9       1.0  0.7684759855597911  0.021343767192268548  0.058122221750681685  1.0000
  Ge  Ge10      1.0  0.5660803565505992  0.20840049331873894  0.4079237215571714  1.0000
  P   P17       1.0  0.7932578226032414  0.20440935104784064  0.0014753336898395452  1.0000
  P   P18       1.0  0.8218164959957249  0.45073872620753447  0.24918394004742872  1.0000
  P   P19       1.0  0.7163412150731449  0.3141438428236959  0.23473456581659508  1.0000
  P   P20       1.0  0.5531177290485911  0.4852949762241884  0.10537797568213567  1.0000
  S   S97       1.0  0.6129946326318741  0.39310058487715466  0.14026008146625604  1.0000
  S   S98       1.0  0.6702241473878658  0.25325313481416345  0.029230163770141333  1.0000
  S   S99       1.0  0.6493836805143544  0.0238935889423795  0.3331043264019292  1.0000
  S   S100      1.0  0.9356487186408635  0.3836233559715075  0.24327792457819958  1.0000
  S   S101      1.0  0.5102312616202612  0.12514247843810922  0.4689691540386731  1.0000
  S   S102      1.0  0.9250160039176659  0.49351730318037346  0.36561524583619553  1.0000
  S   S103      1.0  0.5430378589103991  0.11342340394641989  0.21403845139179736  1.0000
  S   S104      1.0  0.7958593172941616  0.24820347980114074  0.27155089643822483  1.0000
  S   S105      1.0  0.9375231268899561  0.2190929954258107  0.10717925970701633  1.0000
  S   S106      1.0  0.7064546430302806  0.4430005844144245  0.44605354766949973  1.0000
  S   S107      1.0  0.8207193296125173  0.3911737166838771  0.04770000783614111  1.0000
  S   S108      1.0  0.02222713741288529  0.20068843065043168  0.3415852949318899  1.0000
  S   S109      1.0  0.7502218528885414  0.4263251834210509  0.320716249137802  1.0000
  S   S110      1.0  0.6988940639427074  0.24725348900125965  0.1855281181752706  1.0000
  S   S111      1.0  0.5276555159663325  0.3320437614235084  0.43892856741616754  1.0000
  S   S112      1.0  0.8044795582152529  0.0825214867292097  0.4820366301908732  1.0000
  S   S113      1.0  0.7715057789290117  0.4131630264908157  0.19516253387811874  1.0000
  S   S114      1.0  0.9928181795391133  0.4532313690110776  0.061107917328092544  1.0000
  S   S115      1.0  0.8069194839468804  0.07030558043847795  0.23327418674961833  1.0000
  S   S116      1.0  0.700862403713386  0.1748015984631805  0.3930811165227311  1.0000
  S   S117      1.0  0.7867891956648072  0.08742956730006489  0.11266032257493924  1.0000
  S   S118      1.0  0.6296376705726708  0.06190631235629907  0.06197737228427244  1.0000
  S   S119      1.0  0.838766503189977  0.2521136341471689  0.43241111014198375  1.0000
  S   S120      1.0  0.6034477740240299  0.36947327394234064  0.2748633624949501  1.0000
  Li  Li101     1.0  0.6916118450606299  0.38998198109677096  0.529039220046258  1.0000
  Li  Li102     1.0  0.9266541948900215  0.10113072214497183  0.5716485651634258  1.0000
  Li  Li103     1.0  0.9101557519693252  0.16788469008657309  0.6968035797405868  1.0000
  Li  Li104     1.0  0.5593175853522496  0.23458904074621512  0.7453491734585206  1.0000
  Li  Li105     1.0  0.7975981830614218  0.24568574261074252  0.602358786998843  1.0000
  Li  Li106     1.0  0.6907577901852993  0.07155353696844689  0.6948938284340652  1.0000
  Li  Li107     1.0  0.6988042363137977  0.15458713391702536  0.8090021004140573  1.0000
  Li  Li108     1.0  0.6619817446361725  0.0808590946909077  0.9665069171490431  1.0000
  Li  Li109     1.0  0.8573171376738554  0.39929981864844877  0.9448136451639463  1.0000
  Li  Li110     1.0  0.9969102987810988  0.24741716581259343  0.5186987400167073  1.0000
  Li  Li111     1.0  0.5632415366611948  0.42210136753470745  0.8620544295759976  1.0000
  Li  Li112     1.0  0.9476642335038133  0.3613005326319068  0.8308496870073664  1.0000
  Li  Li113     1.0  0.7779751643179429  0.020636545943359914  0.8785137101930486  1.0000
  Li  Li114     1.0  0.5654422015457641  0.16600941262460173  0.626816411372401  1.0000
  Li  Li115     1.0  0.8971313919861577  0.36258873810863346  0.6132028081481227  1.0000
  Li  Li116     1.0  0.00857684874389153  0.06965221110532538  0.8011213212930559  1.0000
  Li  Li117     1.0  0.5419533124930321  0.46935366207885654  0.7137939826586281  1.0000
  Li  Li118     1.0  0.5638930262639775  0.9734436133591398  0.9689814693892307  1.0000
  Li  Li119     1.0  0.9318290930012456  0.112687212282817  0.9061159073016657  1.0000
  Li  Li120     1.0  0.6858434315743316  0.3085464716184962  0.9353082170104903  1.0000
  Ge  Ge11      1.0  0.7684772021313694  0.021342984096262667  0.5581229031440655  1.0000
  Ge  Ge12      1.0  0.5660802195237513  0.20840041751128757  0.9079236618460996  1.0000
  P   P21       1.0  0.7932577314326745  0.20440924320512321  0.501475422768122  1.0000
  P   P22       1.0  0.8218249554883849  0.45073025642623543  0.7491849872650256  1.0000
  P   P23       1.0  0.7163420071740979  0.3141431364336891  0.7347355906699805  1.0000
  P   P24       1.0  0.553120903508659  0.4852912945919195  0.605380985424525  1.0000
  S   S121      1.0  0.6129920221180706  0.3931042549953754  0.6402583443612253  1.0000
  S   S122      1.0  0.670224153197726  0.2532531391363861  0.5292301406727914  1.0000
  S   S123      1.0  0.6493838226913277  0.023893609514205542  0.8331040803462735  1.0000
  S   S124      1.0  0.9356413895482096  0.3836278130934666  0.743278116232199  1.0000
  S   S125      1.0  0.5102313150870945  0.12514263846075915  0.9689690446419553  1.0000
  S   S126      1.0  0.9250160508341393  0.4935174115524389  0.8656152181843211  1.0000
  S   S127      1.0  0.5430376909431498  0.11342364212847282  0.7140384887038957  1.0000
  S   S128      1.0  0.7958581378092189  0.24820488774203095  0.7715502924052439  1.0000
  S   S129      1.0  0.9375233954253944  0.2190928838893128  0.6071793448384512  1.0000
  S   S130      1.0  0.706454677937812  0.44300056225226864  0.9460535343911763  1.0000
  S   S131      1.0  0.8207191768450283  0.39117413068037926  0.5476999370224934  1.0000
  S   S132      1.0  0.022227203007088248  0.20068832257047248  0.8415853731865147  1.0000
  S   S133      1.0  0.7502219442739331  0.4263257083255464  0.8207157122773833  1.0000
  S   S134      1.0  0.6988939432589703  0.24725367971491224  0.6855278427641414  1.0000
  S   S135      1.0  0.5276555002216395  0.33204385389107427  0.9389285602148392  1.0000
  S   S136      1.0  0.8044795492116263  0.08252132470657596  0.9820368380418604  1.0000
  S   S137      1.0  0.7715057005502871  0.41316330217362174  0.6951623846157257  1.0000
  S   S138      1.0  0.9928196486201956  0.45323275938550944  0.5611101896397884  1.0000
  S   S139      1.0  0.8069222536169041  0.0702907818288182  0.7332768308809058  1.0000
  S   S140      1.0  0.7008624051168992  0.1748016106980494  0.893081172127048  1.0000
  S   S141      1.0  0.7867887952182434  0.08742916038046389  0.6126599166215931  1.0000
  S   S142      1.0  0.6296374061240749  0.06190748906057041  0.5619765848096117  1.0000
  S   S143      1.0  0.8387664423604246  0.25211361346753425  0.9324111907930224  1.0000
  S   S144      1.0  0.6034481885845261  0.36947314803965053  0.774863319067484  1.0000
  Li  Li121     1.0  0.691611950921333  0.8899820602457974  0.02903902484169667  1.0000
  Li  Li122     1.0  0.9266539901263122  0.601130947425892  0.07164856818351241  1.0000
  Li  Li123     1.0  0.9101557983590901  0.6678846128938088  0.196803593603694  1.0000
  Li  Li124     1.0  0.5593177798170461  0.734588933401906  0.245349210691147  1.0000
  Li  Li125     1.0  0.7975982432253065  0.745685620019143  0.10235869808191593  1.0000
  Li  Li126     1.0  0.690757898507649  0.5715535138330667  0.19489384573842453  1.0000
  Li  Li127     1.0  0.6988043014186264  0.6545871910208311  0.309002139583962  1.0000
  Li  Li128     1.0  0.6619817568853646  0.5808592058699815  0.4665069515939729  1.0000
  Li  Li129     1.0  0.8573172726892675  0.8992997582207536  0.44481365691854047  1.0000
  Li  Li130     1.0  0.9969104924418991  0.7474170733404552  0.01869871767874819  1.0000
  Li  Li131     1.0  0.5632414522265781  0.9221013705001498  0.3620544170822927  1.0000
  Li  Li132     1.0  0.947664339177472  0.8613004724538079  0.3308494364245195  1.0000
  Li  Li133     1.0  0.7779750855884061  0.5206365672258343  0.3785137228940397  1.0000
  Li  Li134     1.0  0.5654421188036671  0.6660095176450659  0.12681638232692727  1.0000
  Li  Li135     1.0  0.8971312659526126  0.8625885509542496  0.11320298469834623  1.0000
  Li  Li136     1.0  0.008576743886052673  0.5696523417809828  0.3011212618658688  1.0000
  Li  Li137     1.0  0.5419533289336403  0.9693537620263325  0.2137940176970716  1.0000
  Li  Li138     1.0  0.5638929670660565  0.4734437182815292  0.4689814596024227  1.0000
  Li  Li139     1.0  0.9318292044657346  0.6126871760405133  0.4061158707967403  1.0000
  Li  Li140     1.0  0.6858434963712627  0.8085464524706687  0.4353082241681903  1.0000
  Ge  Ge13      1.0  0.7684762581571838  0.5213437674268288  0.05812273153757166  1.0000
  Ge  Ge14      1.0  0.5660806229919925  0.70840041718022  0.407923687255449  1.0000
  P   P25       1.0  0.793257974367699  0.7044090938243585  0.0014754053764723385  1.0000
  P   P26       1.0  0.8218331919660954  0.9507143723872434  0.2491876470838868  1.0000
  P   P27       1.0  0.7163441358078138  0.8141403421118183  0.23473662539384643  1.0000
  P   P28       1.0  0.5531101159667615  0.9853045793547267  0.10537398544548747  1.0000
  S   S145      1.0  0.6130010795873668  0.8930911827927078  0.1402635446161327  1.0000
  S   S146      1.0  0.670224146736558  0.7532532322421871  0.029230218448683423  1.0000
  S   S147      1.0  0.6493839591988873  0.5238935533533134  0.3331041110461049  1.0000
  S   S148      1.0  0.9356354014866802  0.8836321478888022  0.24327805725063062  1.0000
  S   S149      1.0  0.5102311997998081  0.6251425924905443  0.46896917094999824  1.0000
  S   S150      1.0  0.9250159207683736  0.9935175892682165  0.3656154387708753  1.0000
  S   S151      1.0  0.5430378536123389  0.6134236274662476  0.21403843671939118  1.0000
  S   S152      1.0  0.7958567115705657  0.7482060186598624  0.271549520253785  1.0000
  S   S153      1.0  0.9375231845867965  0.7190929725682967  0.10717920923063018  1.0000
  S   S154      1.0  0.706454706394114  0.9430005707271405  0.4460535121966376  1.0000
  S   S155      1.0  0.8207195532711135  0.8911736232583046  0.04770009188177205  1.0000
  S   S156      1.0  0.022227336158945565  0.7006882186669572  0.3415855573914319  1.0000
  S   S157      1.0  0.7502218874765597  0.9263259518003352  0.32071537929866356  1.0000
  S   S158      1.0  0.6988939058807891  0.7472540884781462  0.18552764599287003  1.0000
  S   S159      1.0  0.5276555027802939  0.8320439264000371  0.4389285775742823  1.0000
  S   S160      1.0  0.8044795443251936  0.5825214335883143  0.4820366954502253  1.0000
  S   S161      1.0  0.7715055174555586  0.9131637662012476  0.19516149991481838  1.0000
  S   S162      1.0  0.9928167693747052  0.9532297074727657  0.0611055132388872  1.0000
  S   S163      1.0  0.806922040131881  0.5702908971792242  0.2332768095986914  1.0000
  S   S164      1.0  0.7008620962371168  0.674801698358052  0.3930812301682374  1.0000
  S   S165      1.0  0.7867890456281894  0.5874291662893268  0.11265998960134263  1.0000
  S   S166      1.0  0.6296372392853316  0.561906880740075  0.06197730337082847  1.0000
  S   S167      1.0  0.8387665303797996  0.7521135512260576  0.4324111571567113  1.0000
  S   S168      1.0  0.6034469560746891  0.8694736352698089  0.27486349410147454  1.0000
  Li  Li141     1.0  0.6916119712241434  0.8899819534033321  0.5290392340449862  1.0000
  Li  Li142     1.0  0.9266542595458589  0.6011306419736696  0.5716485033464477  1.0000
  Li  Li143     1.0  0.9101558110652047  0.6678847945857482  0.6968034664786975  1.0000
  Li  Li144     1.0  0.559317720780578  0.7345890740987933  0.7453491871647123  1.0000
  Li  Li145     1.0  0.7975981929771275  0.745685813156596  0.6023587155506617  1.0000
  Li  Li146     1.0  0.6907577707000291  0.5715534259084476  0.6948938003578794  1.0000
  Li  Li147     1.0  0.6988041154906527  0.6545872241257202  0.809002229644519  1.0000
  Li  Li148     1.0  0.661981736761336  0.5808591430269223  0.9665069720751519  1.0000
  Li  Li149     1.0  0.8573171900689487  0.8992997803421274  0.9448136089949897  1.0000
  Li  Li150     1.0  0.9969104065237909  0.747417099935868  0.5186986941806555  1.0000
  Li  Li151     1.0  0.5632414068938773  0.9221013369272871  0.8620544281315603  1.0000
  Li  Li152     1.0  0.9476644465811475  0.8613004361757671  0.8308498391360661  1.0000
  Li  Li153     1.0  0.7779750585300789  0.5206364662273267  0.8785137247959242  1.0000
  Li  Li154     1.0  0.5654422090802821  0.6660095091512703  0.6268164180139805  1.0000
  Li  Li155     1.0  0.8971314213108688  0.8625887334095352  0.6132027726106972  1.0000
  Li  Li156     1.0  0.008576777951388781  0.5696521099509327  0.8011213105593048  1.0000
  Li  Li157     1.0  0.5419536309508425  0.9693535556150807  0.7137937974768127  1.0000
  Li  Li158     1.0  0.5638929256410266  0.4734437118554223  0.96898148437882  1.0000
  Li  Li159     1.0  0.9318291247654199  0.6126871292630889  0.9061159127463085  1.0000
  Li  Li160     1.0  0.6858434405961898  0.8085465054027866  0.9353082100399128  1.0000
  Ge  Ge15      1.0  0.7684768168187153  0.5213430391577464  0.5581227345603522  1.0000
  Ge  Ge16      1.0  0.5660801308069102  0.708400669628557  0.9079237467211763  1.0000
  P   P29       1.0  0.7932577770484452  0.704409318945267  0.5014753223697916  1.0000
  P   P30       1.0  0.8218136323480401  0.9507404561833976  0.7491836946204743  1.0000
  P   P31       1.0  0.716340729141854  0.8141441528377367  0.7347347906929486  1.0000
  P   P32       1.0  0.5531219538247147  0.98529027633506  0.6053826745800513  1.0000
  S   S169      1.0  0.612991110586343  0.8931053738977248  0.6402577455485859  1.0000
  S   S170      1.0  0.6702242722375507  0.7532531227882558  0.52923011764013  1.0000
  S   S171      1.0  0.6493842209171115  0.5238933819062808  0.8331041378054852  1.0000
  S   S172      1.0  0.935651565887428  0.8836217813423494  0.7432778355067671  1.0000
  S   S173      1.0  0.5102312377696583  0.6251426148296929  0.9689691202077817  1.0000
  S   S174      1.0  0.9250161576193654  0.9935173462212845  0.8656152406012282  1.0000
  S   S175      1.0  0.5430375517585919  0.6134237288002516  0.7140385026396135  1.0000
  S   S176      1.0  0.7958593773117856  0.7482035154374637  0.7715509166872297  1.0000
  S   S177      1.0  0.937523407336035  0.719092779198746  0.6071793704291946  1.0000
  S   S178      1.0  0.706454898399318  0.943000501610685  0.9460534407949007  1.0000
  S   S179      1.0  0.820719346585944  0.891174130380871  0.5476998950407804  1.0000
  S   S180      1.0  0.022227149196701657  0.7006883812349041  0.8415852580515175  1.0000
  S   S181      1.0  0.7502217886043915  0.9263250942716743  0.8207163988677776  1.0000
  S   S182      1.0  0.6988940874381904  0.7472537248563204  0.685527968742083  1.0000
  S   S183      1.0  0.5276555319702575  0.8320437556844615  0.938928532201432  1.0000
  S   S184      1.0  0.8044795715066134  0.5825214208943731  0.9820367027689104  1.0000
  S   S185      1.0  0.7715060158851923  0.9131630531992446  0.6951626405807697  1.0000
  S   S186      1.0  0.9928195306850748  0.9532326408032737  0.5611100181871502  1.0000
  S   S187      1.0  0.806921476687687  0.5702943143483247  0.7332759466865073  1.0000
  S   S188      1.0  0.7008624619923032  0.6748016239423137  0.89308115458365  1.0000
  S   S189      1.0  0.7867889344923471  0.5874292396612067  0.6126601374127725  1.0000
  S   S190      1.0  0.6296372400602904  0.561907327247272  0.5619769404205478  1.0000
  S   S191      1.0  0.8387665688758335  0.7521136267697042  0.9324111089197603  1.0000
  S   S192      1.0  0.6034481036216157  0.8694729234309426  0.7748633878502679  1.0000
