data_image0
_chemical_formula_structural       Li20Ge2P4S24
_chemical_formula_sum              "Li20 Ge2 P4 S24"
_cell_length_a       8.541953653508376
_cell_length_b       8.664439245129344
_cell_length_c       14.228967887160985
_cell_angle_alpha    80.99286349247551
_cell_angle_beta     76.738784161411
_cell_angle_gamma    75.09369501224029

_space_group_name_H-M_alt    "P 1"
_space_group_IT_number       1

loop_
  _space_group_symop_operation_xyz
  'x, y, z'

loop_
  _atom_site_type_symbol
  _atom_site_label
  _atom_site_symmetry_multiplicity
  _atom_site_fract_x
  _atom_site_fract_y
  _atom_site_fract_z
  _atom_site_occupancy
  Li  Li1       1.0  0.31441154821085515  0.778321824593394  0.07133761919205162  1.0000
  Li  Li2       1.0  0.9261428811737397  0.1467982245546296  0.1351843048262297  1.0000
  Li  Li3       1.0  0.8838860926114236  0.305283726358498  0.36109434048644967  1.0000
  Li  Li4       1.0  0.1543664104029798  0.5480745636116737  0.4348793747206164  1.0000
  Li  Li5       1.0  0.6455055101473355  0.4361337876516535  0.1845951732046778  1.0000
  Li  Li6       1.0  0.4536009100061781  0.18662265473996453  0.3869286414969967  1.0000
  Li  Li7       1.0  0.23804619498589105  0.29241755106848705  0.5852577091516697  1.0000
  Li  Li8       1.0  0.2983227027117043  0.1552850111819357  0.9419297126955415  1.0000
  Li  Li9       1.0  0.6430089755476  0.7686075711702776  0.9329132477514863  1.0000
  Li  Li10      1.0  0.9789446284460062  0.4988563146264024  0.02590626449605819  1.0000
  Li  Li11      1.0  0.15032409287975929  0.7675126220147218  0.6678645166138001  1.0000
  Li  Li12      1.0  0.8285343901183392  0.6915402894172769  0.7296689971438245  1.0000
  Li  Li13      1.0  0.46103174857933515  0.04735083020815469  0.7643403906665402  1.0000
  Li  Li14      1.0  0.18698632981002677  0.3533445801094902  0.23452493527629684  1.0000
  Li  Li15      1.0  0.8161770994579872  0.6625067345804718  0.23413471403665617  1.0000
  Li  Li16      1.0  0.8600196818329914  0.36290176728822554  0.5463395840633376  1.0000
  Li  Li17      1.0  0.16047168966121123  0.012336249248209752  0.49962441598316254  1.0000
  Li  Li18      1.0  0.12971276031043927  0.9774660407958983  0.8511553774935294  1.0000
  Li  Li19      1.0  0.8066397988738399  0.26522947985250717  0.8124394825649909  1.0000
  Li  Li20      1.0  0.32859295898202745  0.6176487508473829  0.8794291259661902  1.0000
  Ge  Ge1       1.0  0.5598028842045362  0.014166231686998002  0.13009033944120033  1.0000
  Ge  Ge2       1.0  0.09634330058150407  0.4127564609856706  0.8139680641623654  1.0000
  P   P1        1.0  0.5617230778525134  0.39288211655756694  0.016267722168048993  1.0000
  P   P2        1.0  0.7388625668369854  0.9983795930342895  0.5960258426822033  1.0000
  P   P3        1.0  0.4843199732045029  0.6140729120532277  0.42855576824188374  1.0000
  P   P4        1.0  0.18710349278867525  0.9456902466416613  0.30390059401218944  1.0000
  S   S1        1.0  0.16488182742215335  0.7388780868586419  0.2561449188881539  1.0000
  S   S2        1.0  0.31200606612339965  0.48428306685478034  0.06447258885096659  1.0000
  S   S3        1.0  0.2947039726975086  0.9942090432719699  0.6494939016233572  1.0000
  S   S4        1.0  0.951283507652298  0.8363033170649271  0.5439951664712357  1.0000
  S   S5        1.0  0.9963824837313665  0.23836903837035578  0.9334069001830283  1.0000
  S   S6        1.0  0.7620989067474698  0.025734682536586728  0.7327500714309494  1.0000
  S   S7        1.0  0.12680371169537555  0.28423723522972905  0.432975986320385  1.0000
  S   S8        1.0  0.725269459518773  0.5999509253512921  0.4265311098399774  1.0000
  S   S9        1.0  0.9259430826643366  0.3939635945899526  0.19153912699199988  1.0000
  S   S10       1.0  0.3711655042864264  0.8833567992972949  0.9050147866538383  1.0000
  S   S11       1.0  0.6401999129098408  0.757502822261856  0.10721009757123401  1.0000
  S   S12       1.0  0.976658316031995  0.4169721924557502  0.6878754612594731  1.0000
  S   S13       1.0  0.5512098499517408  0.8657467313871117  0.6162205879369503  1.0000
  S   S14       1.0  0.4488371554106269  0.48001595909437417  0.33404429632991434  1.0000
  S   S15       1.0  0.01594052608997955  0.6715401017802067  0.8523499970146439  1.0000
  S   S16       1.0  0.5830648883823797  0.15274735363983089  0.9788094940782285  1.0000
  S   S17       1.0  0.4042625663947989  0.8657402105581102  0.37451606175845104  1.0000
  S   S18       1.0  0.00954753531459529  0.835173198125468  0.15594162609537526  1.0000
  S   S19       1.0  0.6726006898293089  0.20458871967886447  0.5095341430666213  1.0000
  S   S20       1.0  0.3646398174547368  0.3435115180200996  0.7915757146669978  1.0000
  S   S21       1.0  0.6419897371565673  0.13281626408854688  0.2272236173194831  1.0000
  S   S22       1.0  0.2745131844287952  0.07468062668339244  0.1691979797915717  1.0000
  S   S23       1.0  0.6285559400496219  0.5060068985692636  0.8796815105212332  1.0000
  S   S24       1.0  0.33470314996051914  0.5661027244586929  0.5571529866378616  1.0000
