data_image0
_chemical_formula_structural       Mg4Ta8O24
_chemical_formula_sum              "Mg4 Ta8 O24"
_cell_length_a       6.745632718291684
_cell_length_b       6.746533129448254
_cell_length_c       9.280864876859406
_cell_angle_alpha    89.99893145328853
_cell_angle_beta     89.9995374936142
_cell_angle_gamma    90.35982313276482

_space_group_name_H-M_alt    "P 1"
_space_group_IT_number       1

loop_
  _space_group_symop_operation_xyz
  'x, y, z'

loop_
  _atom_site_type_symbol
  _atom_site_label
  _atom_site_symmetry_multiplicity
  _atom_site_fract_x
  _atom_site_fract_y
  _atom_site_fract_z
  _atom_site_occupancy
  Mg  Mg1       1.0  0.6808315080529922  0.28059421925215555  0.2088800896016442  1.0000
  Mg  Mg2       1.0  0.18083375317080258  0.7806012703546177  0.20888310160446616  1.0000
  Mg  Mg3       1.0  0.18081682999454055  0.2806163638740999  0.7088814616578717  1.0000
  Mg  Mg4       1.0  0.6808209491547129  0.7805873976609692  0.7088770973473765  1.0000
  Ta  Ta1       1.0  0.1808075505806097  0.7806112061494878  0.8767959893044118  1.0000
  Ta  Ta2       1.0  0.6808397666065952  0.780661040186822  0.3767941311294944  1.0000
  Ta  Ta3       1.0  0.6808093504849092  0.7805441029065403  0.040955998972374084  1.0000
  Ta  Ta4       1.0  0.6808285959828746  0.2806416352923154  0.5409678151161487  1.0000
  Ta  Ta5       1.0  0.1808109264225644  0.28060211913732386  0.04096240119412784  1.0000
  Ta  Ta6       1.0  0.18084069418603665  0.7806118748313152  0.5409705761288158  1.0000
  Ta  Ta7       1.0  0.6808078262996952  0.2805537360600371  0.8767932402482079  1.0000
  Ta  Ta8       1.0  0.18082652448769532  0.28060958103167194  0.37680066256957373  1.0000
  O   O1        1.0  0.383407990493592  0.7818739474433739  0.032663280406561794  1.0000
  O   O2        1.0  0.6820971286524269  0.9832026418264351  0.5326471979206995  1.0000
  O   O3        1.0  0.1820768915421762  0.48321098361791454  0.8851208038509337  1.0000
  O   O4        1.0  0.99197886979726  0.7790975764379641  0.7088846597198117  1.0000
  O   O5        1.0  0.6793065943048407  0.5917738311029572  0.2088829386940399  1.0000
  O   O6        1.0  0.47821703732620446  0.2793268834589698  0.032670579147231496  1.0000
  O   O7        1.0  0.8696490196507549  0.28214139276861316  0.7088807588750786  1.0000
  O   O8        1.0  0.8834084495462738  0.28187948156578474  0.3850997799256694  1.0000
  O   O9        1.0  0.36965483357187734  0.7821338938338103  0.7088806512558852  1.0000
  O   O10       1.0  0.6823070250601241  0.9694176935294055  0.2088726395633693  1.0000
  O   O11       1.0  0.3834136777431508  0.7818877898758934  0.38510375948397346  1.0000
  O   O12       1.0  0.6795347295809635  0.5779823790142617  0.5326323674820381  1.0000
  O   O13       1.0  0.9782223959633833  0.7793133766902611  0.38509513652817995  1.0000
  O   O14       1.0  0.18209270497607724  0.483200591583946  0.5326425685914538  1.0000
  O   O15       1.0  0.18229932282421213  0.46942142734202635  0.20887653317188296  1.0000
  O   O16       1.0  0.9782159379205309  0.779341305769532  0.03267010277926032  1.0000
  O   O17       1.0  0.17930002646100332  0.09177688916340851  0.20888173895250053  1.0000
  O   O18       1.0  0.4919733474858667  0.27910663188694146  0.7088807289641905  1.0000
  O   O19       1.0  0.17955609448272963  0.0779907535802736  0.8851167175495737  1.0000
  O   O20       1.0  0.4782149175658152  0.27930180138817434  0.3850935858407109  1.0000
  O   O21       1.0  0.8834068501460376  0.281860682067084  0.03265865799469193  1.0000
  O   O22       1.0  0.6795524523985647  0.5779723363880243  0.8851229012154151  1.0000
  O   O23       1.0  0.17952924338155316  0.07798239126956255  0.5326434610794031  1.0000
  O   O24       1.0  0.6820724617394996  0.9831909104468708  0.8851087679788795  1.0000
