# generated using pymatgen
data_Li7VN4
_symmetry_space_group_name_H-M   'P 1'
_cell_length_a   8.91554832
_cell_length_b   9.94999886
_cell_length_c   10.12960052
_cell_angle_alpha   90.05646515
_cell_angle_beta   90.50298309
_cell_angle_gamma   90.26183319
_symmetry_Int_Tables_number   1
_chemical_formula_structural   Li7VN4
_chemical_formula_sum   'Li56 V8 N32'
_cell_volume   898.54929903
_cell_formula_units_Z   8
loop_
 _symmetry_equiv_pos_site_id
 _symmetry_equiv_pos_as_xyz
  1  'x, y, z'
loop_
 _atom_site_type_symbol
 _atom_site_label
 _atom_site_symmetry_multiplicity
 _atom_site_fract_x
 _atom_site_fract_y
 _atom_site_fract_z
 _atom_site_occupancy
  Li  Li0  1  0.17086516  0.93079036  0.70346886  1
  Li  Li1  1  0.77485991  0.41970247  0.96045786  1
  Li  Li2  1  0.51306641  0.17316391  0.95437849  1
  Li  Li3  1  0.51499617  0.92196649  0.95324153  1
  Li  Li4  1  0.14802197  0.14925236  0.55256999  1
  Li  Li5  1  0.25186151  0.42612520  0.45283869  1
  Li  Li6  1  0.28904971  0.43013358  0.19444104  1
  Li  Li7  1  0.65034926  0.74148858  0.29629198  1
  Li  Li8  1  0.14718895  0.62379372  0.06099677  1
  Li  Li9  1  0.75326133  0.93208605  0.95646906  1
  Li  Li10  1  0.96440369  0.72586536  0.68511546  1
  Li  Li11  1  0.74410355  0.46974537  0.71278918  1
  Li  Li12  1  0.92653227  0.08315308  0.76948422  1
  Li  Li13  1  0.28651512  0.93023771  0.96224183  1
  Li  Li14  1  0.89018410  0.76114202  0.12896582  1
  Li  Li15  1  0.97539461  0.97120017  0.20932987  1
  Li  Li16  1  0.64980447  0.24843857  0.35440093  1
  Li  Li17  1  0.86502928  0.58856648  0.28663406  1
  Li  Li18  1  0.89009953  0.14752409  0.38076895  1
  Li  Li19  1  0.64933318  0.24865501  0.77661204  1
  Li  Li20  1  0.64655763  0.64687592  0.05198827  1
  Li  Li21  1  0.78480691  0.43101290  0.46378931  1
  Li  Li22  1  0.24502026  0.96899062  0.21274179  1
  Li  Li23  1  0.27882639  0.68428147  0.42878589  1
  Li  Li24  1  0.68851638  0.08852365  0.12701567  1
  Li  Li25  1  0.13995233  0.23738967  0.29503351  1
  Li  Li26  1  0.97685003  0.67734909  0.45827127  1
  Li  Li27  1  0.39405602  0.74604613  0.63747960  1
  Li  Li28  1  0.51264751  0.91789502  0.45409390  1
  Li  Li29  1  0.01364502  0.43086195  0.95725572  1
  Li  Li30  1  0.66262424  0.64994735  0.55105668  1
  Li  Li31  1  0.88933635  0.24728292  0.62000251  1
  Li  Li32  1  0.39069784  0.14574723  0.40327990  1
  Li  Li33  1  0.15005656  0.74892682  0.85272199  1
  Li  Li34  1  0.75252801  0.92006421  0.43690026  1
  Li  Li35  1  0.86997461  0.24872778  0.13865755  1
  Li  Li36  1  0.89114469  0.64645249  0.90516508  1
  Li  Li37  1  0.64980268  0.74133891  0.79896373  1
  Li  Li38  1  0.19076036  0.14960594  0.05294795  1
  Li  Li39  1  0.46789399  0.22364905  0.18521272  1
  Li  Li40  1  0.78934169  0.92841256  0.69235647  1
  Li  Li41  1  0.13572897  0.75154370  0.26868716  1
  Li  Li42  1  0.27692556  0.92753482  0.46235219  1
  Li  Li43  1  0.42779854  0.58573043  0.27262437  1
  Li  Li44  1  0.39115697  0.64780283  0.88032234  1
  Li  Li45  1  0.39302182  0.26168013  0.62807155  1
  Li  Li46  1  0.47439507  0.47073516  0.70971251  1
  Li  Li47  1  0.64482361  0.12257998  0.56176710  1
  Li  Li48  1  0.01276462  0.42190722  0.45752868  1
  Li  Li49  1  0.66152847  0.43067062  0.20075282  1
  Li  Li50  1  0.25276461  0.41885141  0.94349706  1
  Li  Li51  1  0.15826014  0.24934930  0.78917730  1
  Li  Li52  1  0.36561629  0.09165994  0.78916526  1
  Li  Li53  1  0.18777621  0.58874565  0.63408047  1
  Li  Li54  1  0.38951680  0.74853295  0.12134346  1
  Li  Li55  1  0.97045279  0.21031263  0.95526379  1
  V  V56  1  0.02229026  0.94670105  0.96203929  1
  V  V57  1  0.52023196  0.94846600  0.70455247  1
  V  V58  1  0.52092320  0.44841880  0.46057186  1
  V  V59  1  0.02105987  0.94246477  0.46053207  1
  V  V60  1  0.01577470  0.44746882  0.20742621  1
  V  V61  1  0.52044374  0.94324541  0.21229219  1
  V  V62  1  0.51861179  0.43901703  0.96101654  1
  V  V63  1  0.01744813  0.44635290  0.71326196  1
  N  N64  1  0.62199253  0.06210921  0.32567275  1
  N  N65  1  0.62851745  0.33054653  0.57188231  1
  N  N66  1  0.63158554  0.30479628  0.05402433  1
  N  N67  1  0.12977093  0.83062261  0.07140828  1
  N  N68  1  0.62809426  0.55490130  0.86354965  1
  N  N69  1  0.39863881  0.05783664  0.58978736  1
  N  N70  1  0.13222203  0.80506486  0.55304950  1
  N  N71  1  0.90849626  0.81332546  0.33250090  1
  N  N72  1  0.63294977  0.83673698  0.10737241  1
  N  N73  1  0.13600592  0.06019763  0.86578852  1
  N  N74  1  0.39382380  0.84291899  0.80745244  1
  N  N75  1  0.63950711  0.55404985  0.36240789  1
  N  N76  1  0.12882674  0.55648798  0.31104109  1
  N  N77  1  0.11278955  0.32997599  0.10374264  1
  N  N78  1  0.62429422  0.83433849  0.60631913  1
  N  N79  1  0.90730280  0.55369389  0.59948790  1
  N  N80  1  0.89285922  0.34281012  0.30862644  1
  N  N81  1  0.39416200  0.81814384  0.30317068  1
  N  N82  1  0.12596671  0.56108457  0.82735115  1
  N  N83  1  0.40480104  0.56100279  0.54768395  1
  N  N84  1  0.41122559  0.05275647  0.09757584  1
  N  N85  1  0.13393949  0.33967352  0.60593134  1
  N  N86  1  0.91634941  0.84371632  0.83997566  1
  N  N87  1  0.90250146  0.05671641  0.56242353  1
  N  N88  1  0.12592828  0.05636637  0.36393997  1
  N  N89  1  0.40336305  0.55579555  0.06283055  1
  N  N90  1  0.62750733  0.05245401  0.79903984  1
  N  N91  1  0.90509135  0.05779609  0.06069219  1
  N  N92  1  0.40912998  0.31159100  0.83268052  1
  N  N93  1  0.89553583  0.55666214  0.09083476  1
  N  N94  1  0.41668913  0.34314018  0.33541465  1
  N  N95  1  0.90675527  0.32051304  0.80361480  1
